* File: RCA16bit.pex.netlist.pex
* Created: Sun Apr 12 02:40:41 2020
* Program "Calibre xRC"
* Version "v2017.3_29.23"
* Nominal Temperature: 27C
* Circuit Temperature: 27C
* 
.subckt PM_RCA16BIT_XI0.NET16 1 2 8
c21 8 0 0.0183222f
c22 2 0 0.00673703f
c23 1 0 0.013151f
r24 4 8 2.72321
r25 2 8 102.4
r26 1 4 102.4
.ends

.subckt PM_RCA16BIT_XI0.COUT_INV 5 7 10 12 14 15 17 18 19 30 34 39 41 42 44 45
+ 49 56
c99 56 0 0.0118869f
c100 49 0 0.00561595f
c101 45 0 0.00329388f
c102 44 0 0.00495814f
c103 42 0 0.00886452f
c104 41 0 0.0191557f
c105 39 0 0.00330202f
c106 34 0 0.0124642f
c107 30 0 0.00138096f
c108 19 0 0.0249721f
c109 18 0 0.00819495f
c110 15 0 0.0740492f
c111 12 0 0.0446997f
c112 10 0 0.0385059f
c113 5 0 0.016802f
r114 53 56 6.5
r115 53 54 89.3538
r116 46 49 5.72
r117 44 45 0.184211
r118 42 54 0.657692
r119 41 42 102.4
r120 39 49 89.3538
r121 38 41 3.16071
r122 38 45 1.09821
r123 38 39 102.4
r124 33 44 0.553571
r125 33 34 102.4
r126 29 34 3.15692
r127 29 30 0.0418175
r128 24 30 0.160909
r129 20 30 0.160909
r130 19 24 2.95231
r131 18 20 0.833077
r132 15 56 1.98872
r133 15 17 63.57
r134 12 56 1.98872
r135 12 14 42.9
r136 8 46 1.98872
r137 8 10 95.16
r138 5 46 1.98872
r139 5 7 32.37
.ends

.subckt PM_RCA16BIT_XI0.NET17 13 14 20
c28 20 0 0.0269203f
c29 14 0 0.0119816f
c30 13 0 0.0276947f
r31 20 21 102.4
r32 16 20 2.72321
r33 16 17 102.4
r34 14 21 0.540769
r35 13 17 0.540769
.ends

.subckt PM_RCA16BIT_XI0.SUM_INV 11 13 15 16 17 23 28
c55 30 0 0.0118555f
c56 28 0 0.00825184f
c57 23 0 0.0378958f
c58 16 0 0.0352792f
c59 13 0 0.0675865f
c60 11 0 0.0496922f
r61 27 30 6.5
r62 27 28 89.3538
r63 24 28 0.789231
r64 23 24 102.4
r65 19 23 5.23214
r66 19 20 102.4
r67 17 20 1.16923
r68 16 20 2.99615
r69 13 30 1.98872
r70 13 15 53.43
r71 9 30 1.98872
r72 9 11 53.04
.ends

.subckt PM_RCA16BIT_XI0.NET32 17 18 24
c24 24 0 0.0134095f
c25 18 0 0.0133314f
c26 17 0 0.0133289f
r27 24 25 102.4
r28 20 24 1.36607
r29 20 21 102.4
r30 18 25 0.789231
r31 17 21 0.789231
.ends

.subckt PM_RCA16BIT_XI0.NET31 1 2 5 8 9
c20 9 0 0.00900872f
c21 8 0 0.0103622f
c22 5 0 0.00872297f
r23 8 9 102.4
r24 4 8 1.36607
r25 4 5 102.4
r26 2 9 0.789231
r27 1 5 0.789231
.ends

.subckt PM_RCA16BIT_XI7.NET16 1 2 8
c30 8 0 0.0173101f
c31 2 0 0.0066459f
c32 1 0 0.00847162f
r33 4 8 2.72321
r34 2 8 102.4
r35 1 4 102.4
.ends

.subckt PM_RCA16BIT_XI7.COUT_INV 5 7 10 12 14 15 17 18 19 30 34 39 41 42 44 45
+ 49
c105 56 0 0.0118872f
c106 49 0 0.00561758f
c107 45 0 0.00329388f
c108 44 0 0.00495814f
c109 42 0 0.00883431f
c110 41 0 0.0192919f
c111 39 0 0.00325159f
c112 34 0 0.0123044f
c113 30 0 8.40775e-19
c114 19 0 0.0226771f
c115 18 0 0.00788138f
c116 15 0 0.0740492f
c117 12 0 0.0442212f
c118 10 0 0.0385059f
c119 5 0 0.0169342f
r120 53 56 6.5
r121 53 54 89.3538
r122 46 49 5.72
r123 44 45 0.184211
r124 42 54 0.657692
r125 41 42 102.4
r126 39 49 89.3538
r127 38 41 3.16071
r128 38 45 1.09821
r129 38 39 102.4
r130 33 44 0.553571
r131 33 34 102.4
r132 29 34 3.15692
r133 29 30 0.0418175
r134 24 30 0.160909
r135 20 30 0.160909
r136 19 24 2.95231
r137 18 20 0.833077
r138 15 56 1.98872
r139 15 17 63.57
r140 12 56 1.98872
r141 12 14 42.9
r142 8 46 1.98872
r143 8 10 95.16
r144 5 46 1.98872
r145 5 7 32.37
.ends

.subckt PM_RCA16BIT_XI7.NET17 13 14 20
c24 20 0 0.0268042f
c25 14 0 0.0119816f
c26 13 0 0.0161845f
r27 20 21 102.4
r28 16 20 2.72321
r29 16 17 102.4
r30 14 21 0.540769
r31 13 17 0.540769
.ends

.subckt PM_RCA16BIT_XI7.SUM_INV 11 13 15 16 17 23 28
c49 30 0 0.0117892f
c50 28 0 0.0084319f
c51 23 0 0.040918f
c52 16 0 0.0351536f
c53 13 0 0.0675865f
c54 11 0 0.0499253f
r55 27 30 6.5
r56 27 28 89.3538
r57 24 28 0.789231
r58 23 24 102.4
r59 19 23 5.23214
r60 19 20 102.4
r61 17 20 1.16923
r62 16 20 2.99615
r63 13 30 1.98872
r64 13 15 53.43
r65 9 30 1.98872
r66 9 11 53.04
.ends

.subckt PM_RCA16BIT_XI7.NET32 17 18 24
c17 24 0 0.0134095f
c18 18 0 0.0133314f
c19 17 0 0.0133289f
r20 24 25 102.4
r21 20 24 1.36607
r22 20 21 102.4
r23 18 25 0.789231
r24 17 21 0.789231
.ends

.subckt PM_RCA16BIT_XI7.NET31 1 2 5 8 9
c28 9 0 0.00854261f
c29 8 0 0.0103622f
c30 5 0 0.00859946f
r31 8 9 102.4
r32 4 8 1.36607
r33 4 5 102.4
r34 2 9 0.789231
r35 1 5 0.789231
.ends

.subckt PM_RCA16BIT_XI1.NET16 1 2 8
c25 8 0 0.0172148f
c26 2 0 0.00673703f
c27 1 0 0.00847162f
r28 4 8 2.72321
r29 2 8 102.4
r30 1 4 102.4
.ends

.subckt PM_RCA16BIT_XI1.COUT_INV 5 7 10 12 14 15 17 18 19 30 34 39 41 42 44 45
+ 49 56
c102 56 0 0.0118869f
c103 49 0 0.00561595f
c104 45 0 0.00329388f
c105 44 0 0.00495814f
c106 42 0 0.00886452f
c107 41 0 0.0191557f
c108 39 0 0.00330202f
c109 34 0 0.0124642f
c110 30 0 8.40775e-19
c111 19 0 0.0226771f
c112 18 0 0.00776644f
c113 15 0 0.0740492f
c114 12 0 0.0446997f
c115 10 0 0.0385059f
c116 5 0 0.016802f
r117 53 56 6.5
r118 53 54 89.3538
r119 46 49 5.72
r120 44 45 0.184211
r121 42 54 0.657692
r122 41 42 102.4
r123 39 49 89.3538
r124 38 41 3.16071
r125 38 45 1.09821
r126 38 39 102.4
r127 33 44 0.553571
r128 33 34 102.4
r129 29 34 3.15692
r130 29 30 0.0418175
r131 24 30 0.160909
r132 20 30 0.160909
r133 19 24 2.95231
r134 18 20 0.833077
r135 15 56 1.98872
r136 15 17 63.57
r137 12 56 1.98872
r138 12 14 42.9
r139 8 46 1.98872
r140 8 10 95.16
r141 5 46 1.98872
r142 5 7 32.37
.ends

.subckt PM_RCA16BIT_XI1.NET17 13 14 20
c30 20 0 0.0268042f
c31 14 0 0.0119816f
c32 13 0 0.0161845f
r33 20 21 102.4
r34 16 20 2.72321
r35 16 17 102.4
r36 14 21 0.540769
r37 13 17 0.540769
.ends

.subckt PM_RCA16BIT_XI1.SUM_INV 11 13 15 16 17 23 28
c55 30 0 0.0118555f
c56 28 0 0.00825184f
c57 23 0 0.0378958f
c58 16 0 0.0352792f
c59 13 0 0.0675865f
c60 11 0 0.0496922f
r61 27 30 6.5
r62 27 28 89.3538
r63 24 28 0.789231
r64 23 24 102.4
r65 19 23 5.23214
r66 19 20 102.4
r67 17 20 1.16923
r68 16 20 2.99615
r69 13 30 1.98872
r70 13 15 53.43
r71 9 30 1.98872
r72 9 11 53.04
.ends

.subckt PM_RCA16BIT_XI1.NET32 17 18 24
c24 24 0 0.0134095f
c25 18 0 0.0133314f
c26 17 0 0.0133289f
r27 24 25 102.4
r28 20 24 1.36607
r29 20 21 102.4
r30 18 25 0.789231
r31 17 21 0.789231
.ends

.subckt PM_RCA16BIT_XI1.NET31 1 2 5 8 9
c20 9 0 0.00900872f
c21 8 0 0.0103622f
c22 5 0 0.00872297f
r23 8 9 102.4
r24 4 8 1.36607
r25 4 5 102.4
r26 2 9 0.789231
r27 1 5 0.789231
.ends

.subckt PM_RCA16BIT_XI6.NET16 1 2 8
c30 8 0 0.0173101f
c31 2 0 0.0066459f
c32 1 0 0.00847162f
r33 4 8 2.72321
r34 2 8 102.4
r35 1 4 102.4
.ends

.subckt PM_RCA16BIT_XI6.COUT_INV 5 7 10 12 14 15 17 18 19 30 34 39 41 42 44 45
+ 49 56
c107 56 0 0.0118872f
c108 49 0 0.00561758f
c109 45 0 0.00329388f
c110 44 0 0.00495814f
c111 42 0 0.00861874f
c112 41 0 0.0192919f
c113 39 0 0.00325159f
c114 34 0 0.0123044f
c115 30 0 8.40775e-19
c116 19 0 0.0226771f
c117 18 0 0.00788138f
c118 15 0 0.0740492f
c119 12 0 0.0448072f
c120 10 0 0.0385059f
c121 5 0 0.0169342f
r122 53 56 6.5
r123 53 54 89.3538
r124 46 49 5.72
r125 44 45 0.184211
r126 42 54 0.657692
r127 41 42 102.4
r128 39 49 89.3538
r129 38 41 3.16071
r130 38 45 1.09821
r131 38 39 102.4
r132 33 44 0.553571
r133 33 34 102.4
r134 29 34 3.15692
r135 29 30 0.0418175
r136 24 30 0.160909
r137 20 30 0.160909
r138 19 24 2.95231
r139 18 20 0.833077
r140 15 56 1.98872
r141 15 17 63.57
r142 12 56 1.98872
r143 12 14 42.9
r144 8 46 1.98872
r145 8 10 95.16
r146 5 46 1.98872
r147 5 7 32.37
.ends

.subckt PM_RCA16BIT_XI6.NET17 13 14 20
c24 20 0 0.0268042f
c25 14 0 0.0119816f
c26 13 0 0.0161845f
r27 20 21 102.4
r28 16 20 2.72321
r29 16 17 102.4
r30 14 21 0.540769
r31 13 17 0.540769
.ends

.subckt PM_RCA16BIT_XI6.SUM_INV 11 13 15 16 17 23 28
c53 30 0 0.0118688f
c54 28 0 0.00823351f
c55 23 0 0.0378958f
c56 16 0 0.0351536f
c57 13 0 0.0675865f
c58 11 0 0.0491361f
r59 27 30 6.5
r60 27 28 89.3538
r61 24 28 0.789231
r62 23 24 102.4
r63 19 23 5.23214
r64 19 20 102.4
r65 17 20 1.16923
r66 16 20 2.99615
r67 13 30 1.98872
r68 13 15 53.43
r69 9 30 1.98872
r70 9 11 53.04
.ends

.subckt PM_RCA16BIT_XI6.NET32 17 18 24
c17 24 0 0.0134095f
c18 18 0 0.0133314f
c19 17 0 0.0133289f
r20 24 25 102.4
r21 20 24 1.36607
r22 20 21 102.4
r23 18 25 0.789231
r24 17 21 0.789231
.ends

.subckt PM_RCA16BIT_XI6.NET31 1 2 5 8 9
c28 9 0 0.00891868f
c29 8 0 0.0103622f
c30 5 0 0.00859946f
r31 8 9 102.4
r32 4 8 1.36607
r33 4 5 102.4
r34 2 9 0.789231
r35 1 5 0.789231
.ends

.subckt PM_RCA16BIT_XI8.NET16 1 2 8
c27 8 0 0.016456f
c28 2 0 0.0066459f
c29 1 0 0.013151f
r30 4 8 2.72321
r31 2 8 102.4
r32 1 4 102.4
.ends

.subckt PM_RCA16BIT_XI8.COUT_INV 5 7 10 12 14 15 17 18 19 30 34 39 41 42 44 45
+ 49 56
c102 56 0 0.0118872f
c103 49 0 0.00561758f
c104 45 0 0.00329388f
c105 44 0 0.00502352f
c106 42 0 0.00861874f
c107 41 0 0.0192919f
c108 39 0 0.00325159f
c109 34 0 0.0123044f
c110 30 0 2.23841e-19
c111 19 0 0.0229644f
c112 18 0 0.00659796f
c113 15 0 0.0740492f
c114 12 0 0.0448072f
c115 10 0 0.0385059f
c116 5 0 0.0169342f
r117 53 56 6.5
r118 53 54 89.3538
r119 46 49 5.72
r120 44 45 0.184211
r121 42 54 0.657692
r122 41 42 102.4
r123 39 49 89.3538
r124 38 41 3.16071
r125 38 45 1.09821
r126 38 39 102.4
r127 33 44 0.553571
r128 33 34 102.4
r129 29 34 3.15692
r130 29 30 0.0418175
r131 24 30 0.160909
r132 20 30 0.160909
r133 19 24 2.95231
r134 18 20 0.833077
r135 15 56 1.98872
r136 15 17 63.57
r137 12 56 1.98872
r138 12 14 42.9
r139 8 46 1.98872
r140 8 10 95.16
r141 5 46 1.98872
r142 5 7 32.37
.ends

.subckt PM_RCA16BIT_XI8.NET17 13 14 20
c28 20 0 0.0269655f
c29 14 0 0.0119816f
c30 13 0 0.0276947f
r31 20 21 102.4
r32 16 20 2.72321
r33 16 17 102.4
r34 14 21 0.540769
r35 13 17 0.540769
.ends

.subckt PM_RCA16BIT_XI8.SUM_INV 11 13 15 16 17 23 28
c56 30 0 0.0118688f
c57 28 0 0.00823351f
c58 23 0 0.0378958f
c59 16 0 0.0351536f
c60 13 0 0.0675865f
c61 11 0 0.0491361f
r62 27 30 6.5
r63 27 28 89.3538
r64 24 28 0.789231
r65 23 24 102.4
r66 19 23 5.23214
r67 19 20 102.4
r68 17 20 1.16923
r69 16 20 2.99615
r70 13 30 1.98872
r71 13 15 53.43
r72 9 30 1.98872
r73 9 11 53.04
.ends

.subckt PM_RCA16BIT_XI8.NET32 17 18 24
c24 24 0 0.0134095f
c25 18 0 0.0133314f
c26 17 0 0.0133289f
r27 24 25 102.4
r28 20 24 1.36607
r29 20 21 102.4
r30 18 25 0.789231
r31 17 21 0.789231
.ends

.subckt PM_RCA16BIT_XI8.NET31 1 2 5 8 9
c21 9 0 0.00891868f
c22 8 0 0.0103622f
c23 5 0 0.00859946f
r24 8 9 102.4
r25 4 8 1.36607
r26 4 5 102.4
r27 2 9 0.789231
r28 1 5 0.789231
.ends

.subckt PM_RCA16BIT_XI15.NET16 1 2 8
c29 8 0 0.0172148f
c30 2 0 0.00673703f
c31 1 0 0.00847162f
r32 4 8 2.72321
r33 2 8 102.4
r34 1 4 102.4
.ends

.subckt PM_RCA16BIT_XI15.COUT_INV 5 7 10 12 14 15 17 18 19 30 34 39 41 42 44 45
+ 49
c102 56 0 0.0118869f
c103 49 0 0.00561595f
c104 45 0 0.00329388f
c105 44 0 0.00495814f
c106 42 0 0.00908008f
c107 41 0 0.0191557f
c108 39 0 0.00330202f
c109 34 0 0.0124642f
c110 30 0 8.40775e-19
c111 19 0 0.0226771f
c112 18 0 0.00776644f
c113 15 0 0.0740492f
c114 12 0 0.0446997f
c115 10 0 0.0385059f
c116 5 0 0.016802f
r117 53 56 6.5
r118 53 54 89.3538
r119 46 49 5.72
r120 44 45 0.184211
r121 42 54 0.657692
r122 41 42 102.4
r123 39 49 89.3538
r124 38 41 3.16071
r125 38 45 1.09821
r126 38 39 102.4
r127 33 44 0.553571
r128 33 34 102.4
r129 29 34 3.15692
r130 29 30 0.0418175
r131 24 30 0.160909
r132 20 30 0.160909
r133 19 24 2.95231
r134 18 20 0.833077
r135 15 56 1.98872
r136 15 17 63.57
r137 12 56 1.98872
r138 12 14 42.9
r139 8 46 1.98872
r140 8 10 95.16
r141 5 46 1.98872
r142 5 7 32.37
.ends

.subckt PM_RCA16BIT_XI15.NET17 13 14 20
c24 20 0 0.0268042f
c25 14 0 0.0119816f
c26 13 0 0.0161845f
r27 20 21 102.4
r28 16 20 2.72321
r29 16 17 102.4
r30 14 21 0.540769
r31 13 17 0.540769
.ends

.subckt PM_RCA16BIT_XI15.SUM_INV 11 13 15 16 17 23 28
c48 30 0 0.0117759f
c49 28 0 0.00845024f
c50 23 0 0.040918f
c51 16 0 0.0352792f
c52 13 0 0.0675865f
c53 11 0 0.0504814f
r54 27 30 6.5
r55 27 28 89.3538
r56 24 28 0.789231
r57 23 24 102.4
r58 19 23 5.23214
r59 19 20 102.4
r60 17 20 1.16923
r61 16 20 2.99615
r62 13 30 1.98872
r63 13 15 53.43
r64 9 30 1.98872
r65 9 11 53.04
.ends

.subckt PM_RCA16BIT_XI15.NET32 17 18 24
c17 24 0 0.0134095f
c18 18 0 0.0133314f
c19 17 0 0.0133289f
r20 24 25 102.4
r21 20 24 1.36607
r22 20 21 102.4
r23 18 25 0.789231
r24 17 21 0.789231
.ends

.subckt PM_RCA16BIT_XI15.NET31 1 2 5 8 9
c27 9 0 0.00900872f
c28 8 0 0.0103622f
c29 5 0 0.00872297f
r30 8 9 102.4
r31 4 8 1.36607
r32 4 5 102.4
r33 2 9 0.789231
r34 1 5 0.789231
.ends

.subckt PM_RCA16BIT_XI9.NET16 1 2 8
c27 8 0 0.0173101f
c28 2 0 0.0066459f
c29 1 0 0.00847162f
r30 4 8 2.72321
r31 2 8 102.4
r32 1 4 102.4
.ends

.subckt PM_RCA16BIT_XI9.COUT_INV 5 7 10 12 14 15 17 18 19 30 34 39 41 42 44 45
+ 49 56
c104 56 0 0.0118872f
c105 49 0 0.00561758f
c106 45 0 0.00329388f
c107 44 0 0.00495814f
c108 42 0 0.00861874f
c109 41 0 0.0192919f
c110 39 0 0.00325159f
c111 34 0 0.0123044f
c112 30 0 8.40775e-19
c113 19 0 0.0226771f
c114 18 0 0.00788138f
c115 15 0 0.0740492f
c116 12 0 0.0448072f
c117 10 0 0.0385059f
c118 5 0 0.0169342f
r119 53 56 6.5
r120 53 54 89.3538
r121 46 49 5.72
r122 44 45 0.184211
r123 42 54 0.657692
r124 41 42 102.4
r125 39 49 89.3538
r126 38 41 3.16071
r127 38 45 1.09821
r128 38 39 102.4
r129 33 44 0.553571
r130 33 34 102.4
r131 29 34 3.15692
r132 29 30 0.0418175
r133 24 30 0.160909
r134 20 30 0.160909
r135 19 24 2.95231
r136 18 20 0.833077
r137 15 56 1.98872
r138 15 17 63.57
r139 12 56 1.98872
r140 12 14 42.9
r141 8 46 1.98872
r142 8 10 95.16
r143 5 46 1.98872
r144 5 7 32.37
.ends

.subckt PM_RCA16BIT_XI9.NET17 13 14 20
c30 20 0 0.0268042f
c31 14 0 0.0119816f
c32 13 0 0.0161845f
r33 20 21 102.4
r34 16 20 2.72321
r35 16 17 102.4
r36 14 21 0.540769
r37 13 17 0.540769
.ends

.subckt PM_RCA16BIT_XI9.SUM_INV 11 13 15 16 17 23 28
c56 30 0 0.0118688f
c57 28 0 0.00823351f
c58 23 0 0.0378958f
c59 16 0 0.0351536f
c60 13 0 0.0675865f
c61 11 0 0.0491361f
r62 27 30 6.5
r63 27 28 89.3538
r64 24 28 0.789231
r65 23 24 102.4
r66 19 23 5.23214
r67 19 20 102.4
r68 17 20 1.16923
r69 16 20 2.99615
r70 13 30 1.98872
r71 13 15 53.43
r72 9 30 1.98872
r73 9 11 53.04
.ends

.subckt PM_RCA16BIT_XI9.NET32 17 18 24
c24 24 0 0.0134095f
c25 18 0 0.0133314f
c26 17 0 0.0133289f
r27 24 25 102.4
r28 20 24 1.36607
r29 20 21 102.4
r30 18 25 0.789231
r31 17 21 0.789231
.ends

.subckt PM_RCA16BIT_XI9.NET31 1 2 5 8 9
c21 9 0 0.00891868f
c22 8 0 0.0103622f
c23 5 0 0.00859946f
r24 8 9 102.4
r25 4 8 1.36607
r26 4 5 102.4
r27 2 9 0.789231
r28 1 5 0.789231
.ends

.subckt PM_RCA16BIT_XI14.NET16 1 2 8
c29 8 0 0.0172148f
c30 2 0 0.00673703f
c31 1 0 0.00847162f
r32 4 8 2.72321
r33 2 8 102.4
r34 1 4 102.4
.ends

.subckt PM_RCA16BIT_XI14.COUT_INV 5 7 10 12 14 15 17 18 19 30 34 39 41 42 44 45
+ 49 56
c105 56 0 0.0118869f
c106 49 0 0.00561595f
c107 45 0 0.00329388f
c108 44 0 0.00495814f
c109 42 0 0.00886452f
c110 41 0 0.0191557f
c111 39 0 0.00330202f
c112 34 0 0.0124642f
c113 30 0 8.40775e-19
c114 19 0 0.0226771f
c115 18 0 0.00776644f
c116 15 0 0.0740492f
c117 12 0 0.0446997f
c118 10 0 0.0385059f
c119 5 0 0.016802f
r120 53 56 6.5
r121 53 54 89.3538
r122 46 49 5.72
r123 44 45 0.184211
r124 42 54 0.657692
r125 41 42 102.4
r126 39 49 89.3538
r127 38 41 3.16071
r128 38 45 1.09821
r129 38 39 102.4
r130 33 44 0.553571
r131 33 34 102.4
r132 29 34 3.15692
r133 29 30 0.0418175
r134 24 30 0.160909
r135 20 30 0.160909
r136 19 24 2.95231
r137 18 20 0.833077
r138 15 56 1.98872
r139 15 17 63.57
r140 12 56 1.98872
r141 12 14 42.9
r142 8 46 1.98872
r143 8 10 95.16
r144 5 46 1.98872
r145 5 7 32.37
.ends

.subckt PM_RCA16BIT_XI14.NET17 13 14 20
c24 20 0 0.0268042f
c25 14 0 0.0119816f
c26 13 0 0.0161845f
r27 20 21 102.4
r28 16 20 2.72321
r29 16 17 102.4
r30 14 21 0.540769
r31 13 17 0.540769
.ends

.subckt PM_RCA16BIT_XI14.SUM_INV 11 13 15 16 17 23 28
c52 30 0 0.0118555f
c53 28 0 0.00825184f
c54 23 0 0.0378958f
c55 16 0 0.0352792f
c56 13 0 0.0675865f
c57 11 0 0.0496922f
r58 27 30 6.5
r59 27 28 89.3538
r60 24 28 0.789231
r61 23 24 102.4
r62 19 23 5.23214
r63 19 20 102.4
r64 17 20 1.16923
r65 16 20 2.99615
r66 13 30 1.98872
r67 13 15 53.43
r68 9 30 1.98872
r69 9 11 53.04
.ends

.subckt PM_RCA16BIT_XI14.NET32 17 18 24
c17 24 0 0.0134095f
c18 18 0 0.0133314f
c19 17 0 0.0133289f
r20 24 25 102.4
r21 20 24 1.36607
r22 20 21 102.4
r23 18 25 0.789231
r24 17 21 0.789231
.ends

.subckt PM_RCA16BIT_XI14.NET31 1 2 5 8 9
c27 9 0 0.00900872f
c28 8 0 0.0103622f
c29 5 0 0.00872297f
r30 8 9 102.4
r31 4 8 1.36607
r32 4 5 102.4
r33 2 9 0.789231
r34 1 5 0.789231
.ends

.subckt PM_RCA16BIT_XI2.NET16 1 2 8
c25 8 0 0.0172148f
c26 2 0 0.00673703f
c27 1 0 0.00847162f
r28 4 8 2.72321
r29 2 8 102.4
r30 1 4 102.4
.ends

.subckt PM_RCA16BIT_XI2.COUT_INV 5 7 10 12 14 15 17 18 19 30 34 39 41 42 44 45
+ 49 56
c102 56 0 0.0118869f
c103 49 0 0.00561595f
c104 45 0 0.00329388f
c105 44 0 0.00495814f
c106 42 0 0.00886452f
c107 41 0 0.0191557f
c108 39 0 0.00330202f
c109 34 0 0.0124642f
c110 30 0 8.40775e-19
c111 19 0 0.0226771f
c112 18 0 0.00776644f
c113 15 0 0.0740492f
c114 12 0 0.0446997f
c115 10 0 0.0385059f
c116 5 0 0.016802f
r117 53 56 6.5
r118 53 54 89.3538
r119 46 49 5.72
r120 44 45 0.184211
r121 42 54 0.657692
r122 41 42 102.4
r123 39 49 89.3538
r124 38 41 3.16071
r125 38 45 1.09821
r126 38 39 102.4
r127 33 44 0.553571
r128 33 34 102.4
r129 29 34 3.15692
r130 29 30 0.0418175
r131 24 30 0.160909
r132 20 30 0.160909
r133 19 24 2.95231
r134 18 20 0.833077
r135 15 56 1.98872
r136 15 17 63.57
r137 12 56 1.98872
r138 12 14 42.9
r139 8 46 1.98872
r140 8 10 95.16
r141 5 46 1.98872
r142 5 7 32.37
.ends

.subckt PM_RCA16BIT_XI2.NET17 13 14 20
c30 20 0 0.0268042f
c31 14 0 0.0119816f
c32 13 0 0.0161845f
r33 20 21 102.4
r34 16 20 2.72321
r35 16 17 102.4
r36 14 21 0.540769
r37 13 17 0.540769
.ends

.subckt PM_RCA16BIT_XI2.SUM_INV 11 13 15 16 17 23 28
c55 30 0 0.0118555f
c56 28 0 0.00825184f
c57 23 0 0.0378958f
c58 16 0 0.0352792f
c59 13 0 0.0675865f
c60 11 0 0.0496922f
r61 27 30 6.5
r62 27 28 89.3538
r63 24 28 0.789231
r64 23 24 102.4
r65 19 23 5.23214
r66 19 20 102.4
r67 17 20 1.16923
r68 16 20 2.99615
r69 13 30 1.98872
r70 13 15 53.43
r71 9 30 1.98872
r72 9 11 53.04
.ends

.subckt PM_RCA16BIT_XI2.NET32 17 18 24
c24 24 0 0.0134095f
c25 18 0 0.0133314f
c26 17 0 0.0133289f
r27 24 25 102.4
r28 20 24 1.36607
r29 20 21 102.4
r30 18 25 0.789231
r31 17 21 0.789231
.ends

.subckt PM_RCA16BIT_XI2.NET31 1 2 5 8 9
c20 9 0 0.00900872f
c21 8 0 0.0103622f
c22 5 0 0.00872297f
r23 8 9 102.4
r24 4 8 1.36607
r25 4 5 102.4
r26 2 9 0.789231
r27 1 5 0.789231
.ends

.subckt PM_RCA16BIT_XI5.NET16 1 2 8
c30 8 0 0.0173101f
c31 2 0 0.0066459f
c32 1 0 0.00847162f
r33 4 8 2.72321
r34 2 8 102.4
r35 1 4 102.4
.ends

.subckt PM_RCA16BIT_XI5.COUT_INV 5 7 10 12 14 15 17 18 19 30 34 39 41 42 44 45
+ 49 56
c107 56 0 0.0118872f
c108 49 0 0.00561758f
c109 45 0 0.00329388f
c110 44 0 0.00495814f
c111 42 0 0.00861874f
c112 41 0 0.0192919f
c113 39 0 0.00325159f
c114 34 0 0.0123044f
c115 30 0 8.40775e-19
c116 19 0 0.0226771f
c117 18 0 0.00788138f
c118 15 0 0.0740492f
c119 12 0 0.0448072f
c120 10 0 0.0385059f
c121 5 0 0.0169342f
r122 53 56 6.5
r123 53 54 89.3538
r124 46 49 5.72
r125 44 45 0.184211
r126 42 54 0.657692
r127 41 42 102.4
r128 39 49 89.3538
r129 38 41 3.16071
r130 38 45 1.09821
r131 38 39 102.4
r132 33 44 0.553571
r133 33 34 102.4
r134 29 34 3.15692
r135 29 30 0.0418175
r136 24 30 0.160909
r137 20 30 0.160909
r138 19 24 2.95231
r139 18 20 0.833077
r140 15 56 1.98872
r141 15 17 63.57
r142 12 56 1.98872
r143 12 14 42.9
r144 8 46 1.98872
r145 8 10 95.16
r146 5 46 1.98872
r147 5 7 32.37
.ends

.subckt PM_RCA16BIT_XI5.NET17 13 14 20
c24 20 0 0.0268042f
c25 14 0 0.0119816f
c26 13 0 0.0161845f
r27 20 21 102.4
r28 16 20 2.72321
r29 16 17 102.4
r30 14 21 0.540769
r31 13 17 0.540769
.ends

.subckt PM_RCA16BIT_XI5.SUM_INV 11 13 15 16 17 23 28
c53 30 0 0.0118688f
c54 28 0 0.00823351f
c55 23 0 0.0378958f
c56 16 0 0.0351536f
c57 13 0 0.0675865f
c58 11 0 0.0491361f
r59 27 30 6.5
r60 27 28 89.3538
r61 24 28 0.789231
r62 23 24 102.4
r63 19 23 5.23214
r64 19 20 102.4
r65 17 20 1.16923
r66 16 20 2.99615
r67 13 30 1.98872
r68 13 15 53.43
r69 9 30 1.98872
r70 9 11 53.04
.ends

.subckt PM_RCA16BIT_XI5.NET32 17 18 24
c17 24 0 0.0134095f
c18 18 0 0.0133314f
c19 17 0 0.0133289f
r20 24 25 102.4
r21 20 24 1.36607
r22 20 21 102.4
r23 18 25 0.789231
r24 17 21 0.789231
.ends

.subckt PM_RCA16BIT_XI5.NET31 1 2 5 8 9
c28 9 0 0.00891868f
c29 8 0 0.0103622f
c30 5 0 0.00859946f
r31 8 9 102.4
r32 4 8 1.36607
r33 4 5 102.4
r34 2 9 0.789231
r35 1 5 0.789231
.ends

.subckt PM_RCA16BIT_XI3.NET16 1 2 8
c25 8 0 0.0172148f
c26 2 0 0.00673703f
c27 1 0 0.00847162f
r28 4 8 2.72321
r29 2 8 102.4
r30 1 4 102.4
.ends

.subckt PM_RCA16BIT_XI3.COUT_INV 5 7 10 12 14 15 17 18 19 30 34 39 41 42 44 45
+ 49
c100 56 0 0.0118869f
c101 49 0 0.00561595f
c102 45 0 0.00329388f
c103 44 0 0.00495814f
c104 42 0 0.00908008f
c105 41 0 0.0191557f
c106 39 0 0.00330202f
c107 34 0 0.0124642f
c108 30 0 8.40775e-19
c109 19 0 0.0226771f
c110 18 0 0.00776644f
c111 15 0 0.0732133f
c112 12 0 0.0446997f
c113 10 0 0.0385059f
c114 5 0 0.016802f
r115 53 56 6.5
r116 53 54 89.3538
r117 46 49 5.72
r118 44 45 0.184211
r119 42 54 0.657692
r120 41 42 102.4
r121 39 49 89.3538
r122 38 41 3.16071
r123 38 45 1.09821
r124 38 39 102.4
r125 33 44 0.553571
r126 33 34 102.4
r127 29 34 3.15692
r128 29 30 0.0418175
r129 24 30 0.160909
r130 20 30 0.160909
r131 19 24 2.95231
r132 18 20 0.833077
r133 15 56 1.98872
r134 15 17 63.57
r135 12 56 1.98872
r136 12 14 42.9
r137 8 46 1.98872
r138 8 10 95.16
r139 5 46 1.98872
r140 5 7 32.37
.ends

.subckt PM_RCA16BIT_XI3.NET17 13 14 20
c30 20 0 0.0268042f
c31 14 0 0.0119816f
c32 13 0 0.0161845f
r33 20 21 102.4
r34 16 20 2.72321
r35 16 17 102.4
r36 14 21 0.540769
r37 13 17 0.540769
.ends

.subckt PM_RCA16BIT_XI3.SUM_INV 11 13 15 16 17 23 28
c51 30 0 0.0117759f
c52 28 0 0.00845024f
c53 23 0 0.0408467f
c54 16 0 0.0352792f
c55 13 0 0.0675865f
c56 11 0 0.0504814f
r57 27 30 6.5
r58 27 28 89.3538
r59 24 28 0.789231
r60 23 24 102.4
r61 19 23 5.23214
r62 19 20 102.4
r63 17 20 1.16923
r64 16 20 2.99615
r65 13 30 1.98872
r66 13 15 53.43
r67 9 30 1.98872
r68 9 11 53.04
.ends

.subckt PM_RCA16BIT_XI3.NET32 17 18 24
c24 24 0 0.0134095f
c25 18 0 0.0120731f
c26 17 0 0.0133289f
r27 24 25 102.4
r28 20 24 1.36607
r29 20 21 102.4
r30 18 25 0.789231
r31 17 21 0.789231
.ends

.subckt PM_RCA16BIT_XI3.NET31 1 2 5 8 9
c20 9 0 0.00900872f
c21 8 0 0.0103622f
c22 5 0 0.00872297f
r23 8 9 102.4
r24 4 8 1.36607
r25 4 5 102.4
r26 2 9 0.789231
r27 1 5 0.789231
.ends

.subckt PM_RCA16BIT_XI4.NET16 1 2 8
c26 8 0 0.0184052f
c27 2 0 0.0066459f
c28 1 0 0.013151f
r29 4 8 2.72321
r30 2 8 102.4
r31 1 4 102.4
.ends

.subckt PM_RCA16BIT_XI4.COUT_INV 5 7 10 12 14 15 17 18 19 30 34 39 41 42 44 45
+ 49 56
c106 56 0 0.0118872f
c107 49 0 0.00561758f
c108 45 0 0.00329388f
c109 44 0 0.00495814f
c110 42 0 0.00861874f
c111 41 0 0.0192919f
c112 39 0 0.00325159f
c113 34 0 0.0123044f
c114 30 0 0.00138096f
c115 19 0 0.0187618f
c116 18 0 0.00830989f
c117 15 0 0.0740492f
c118 12 0 0.0448072f
c119 10 0 0.0385059f
c120 5 0 0.0169342f
r121 53 56 6.5
r122 53 54 89.3538
r123 46 49 5.72
r124 44 45 0.184211
r125 42 54 0.657692
r126 41 42 102.4
r127 39 49 89.3538
r128 38 41 3.16071
r129 38 45 1.09821
r130 38 39 102.4
r131 33 44 0.553571
r132 33 34 102.4
r133 29 34 3.15692
r134 29 30 0.0418175
r135 24 30 0.160909
r136 20 30 0.160909
r137 19 24 2.95231
r138 18 20 0.833077
r139 15 56 1.98872
r140 15 17 63.57
r141 12 56 1.98872
r142 12 14 42.9
r143 8 46 1.98872
r144 8 10 95.16
r145 5 46 1.98872
r146 5 7 32.37
.ends

.subckt PM_RCA16BIT_XI4.NET17 13 14 20
c29 20 0 0.0228562f
c30 14 0 0.0107879f
c31 13 0 0.0265122f
r32 20 21 102.4
r33 16 20 2.72321
r34 16 17 102.4
r35 14 21 0.540769
r36 13 17 0.540769
.ends

.subckt PM_RCA16BIT_XI4.SUM_INV 11 13 15 16 17 23 28
c53 30 0 0.0118688f
c54 28 0 0.00823351f
c55 23 0 0.0378958f
c56 16 0 0.0351536f
c57 13 0 0.0675865f
c58 11 0 0.0491361f
r59 27 30 6.5
r60 27 28 89.3538
r61 24 28 0.789231
r62 23 24 102.4
r63 19 23 5.23214
r64 19 20 102.4
r65 17 20 1.16923
r66 16 20 2.99615
r67 13 30 1.98872
r68 13 15 53.43
r69 9 30 1.98872
r70 9 11 53.04
.ends

.subckt PM_RCA16BIT_XI4.NET32 17 18 24
c17 24 0 0.0134095f
c18 18 0 0.0133314f
c19 17 0 0.0133289f
r20 24 25 102.4
r21 20 24 1.36607
r22 20 21 102.4
r23 18 25 0.789231
r24 17 21 0.789231
.ends

.subckt PM_RCA16BIT_XI4.NET31 1 2 5 8 9
c28 9 0 0.00891868f
c29 8 0 0.0103622f
c30 5 0 0.00859946f
r31 8 9 102.4
r32 4 8 1.36607
r33 4 5 102.4
r34 2 9 0.789231
r35 1 5 0.789231
.ends

.subckt PM_RCA16BIT_XI10.NET16 1 2 8
c27 8 0 0.0173101f
c28 2 0 0.0066459f
c29 1 0 0.00847162f
r30 4 8 2.72321
r31 2 8 102.4
r32 1 4 102.4
.ends

.subckt PM_RCA16BIT_XI10.COUT_INV 5 7 10 12 14 15 17 18 19 30 34 39 41 42 44 45
+ 49 56
c104 56 0 0.0118872f
c105 49 0 0.00561758f
c106 45 0 0.00329388f
c107 44 0 0.00495814f
c108 42 0 0.00861874f
c109 41 0 0.0192919f
c110 39 0 0.00325159f
c111 34 0 0.0123044f
c112 30 0 8.40775e-19
c113 19 0 0.0226771f
c114 18 0 0.00788138f
c115 15 0 0.0740492f
c116 12 0 0.0448072f
c117 10 0 0.0385059f
c118 5 0 0.0169342f
r119 53 56 6.5
r120 53 54 89.3538
r121 46 49 5.72
r122 44 45 0.184211
r123 42 54 0.657692
r124 41 42 102.4
r125 39 49 89.3538
r126 38 41 3.16071
r127 38 45 1.09821
r128 38 39 102.4
r129 33 44 0.553571
r130 33 34 102.4
r131 29 34 3.15692
r132 29 30 0.0418175
r133 24 30 0.160909
r134 20 30 0.160909
r135 19 24 2.95231
r136 18 20 0.833077
r137 15 56 1.98872
r138 15 17 63.57
r139 12 56 1.98872
r140 12 14 42.9
r141 8 46 1.98872
r142 8 10 95.16
r143 5 46 1.98872
r144 5 7 32.37
.ends

.subckt PM_RCA16BIT_XI10.NET17 13 14 20
c30 20 0 0.0268042f
c31 14 0 0.0119816f
c32 13 0 0.0161845f
r33 20 21 102.4
r34 16 20 2.72321
r35 16 17 102.4
r36 14 21 0.540769
r37 13 17 0.540769
.ends

.subckt PM_RCA16BIT_XI10.SUM_INV 11 13 15 16 17 23 28
c56 30 0 0.0118688f
c57 28 0 0.00823351f
c58 23 0 0.0378958f
c59 16 0 0.0351536f
c60 13 0 0.0675865f
c61 11 0 0.0491361f
r62 27 30 6.5
r63 27 28 89.3538
r64 24 28 0.789231
r65 23 24 102.4
r66 19 23 5.23214
r67 19 20 102.4
r68 17 20 1.16923
r69 16 20 2.99615
r70 13 30 1.98872
r71 13 15 53.43
r72 9 30 1.98872
r73 9 11 53.04
.ends

.subckt PM_RCA16BIT_XI10.NET32 17 18 24
c24 24 0 0.0134095f
c25 18 0 0.0133314f
c26 17 0 0.0133289f
r27 24 25 102.4
r28 20 24 1.36607
r29 20 21 102.4
r30 18 25 0.789231
r31 17 21 0.789231
.ends

.subckt PM_RCA16BIT_XI10.NET31 1 2 5 8 9
c21 9 0 0.00891868f
c22 8 0 0.0103622f
c23 5 0 0.00859946f
r24 8 9 102.4
r25 4 8 1.36607
r26 4 5 102.4
r27 2 9 0.789231
r28 1 5 0.789231
.ends

.subckt PM_RCA16BIT_XI13.NET16 1 2 8
c29 8 0 0.0172148f
c30 2 0 0.00673703f
c31 1 0 0.00847162f
r32 4 8 2.72321
r33 2 8 102.4
r34 1 4 102.4
.ends

.subckt PM_RCA16BIT_XI13.COUT_INV 5 7 10 12 14 15 17 18 19 30 34 39 41 42 44 45
+ 49 56
c105 56 0 0.0118869f
c106 49 0 0.00561595f
c107 45 0 0.00329388f
c108 44 0 0.00495814f
c109 42 0 0.00886452f
c110 41 0 0.0191557f
c111 39 0 0.00330202f
c112 34 0 0.0124642f
c113 30 0 8.40775e-19
c114 19 0 0.0226771f
c115 18 0 0.00776644f
c116 15 0 0.0740492f
c117 12 0 0.0446997f
c118 10 0 0.0385059f
c119 5 0 0.016802f
r120 53 56 6.5
r121 53 54 89.3538
r122 46 49 5.72
r123 44 45 0.184211
r124 42 54 0.657692
r125 41 42 102.4
r126 39 49 89.3538
r127 38 41 3.16071
r128 38 45 1.09821
r129 38 39 102.4
r130 33 44 0.553571
r131 33 34 102.4
r132 29 34 3.15692
r133 29 30 0.0418175
r134 24 30 0.160909
r135 20 30 0.160909
r136 19 24 2.95231
r137 18 20 0.833077
r138 15 56 1.98872
r139 15 17 63.57
r140 12 56 1.98872
r141 12 14 42.9
r142 8 46 1.98872
r143 8 10 95.16
r144 5 46 1.98872
r145 5 7 32.37
.ends

.subckt PM_RCA16BIT_XI13.NET17 13 14 20
c24 20 0 0.0268042f
c25 14 0 0.0119816f
c26 13 0 0.0161845f
r27 20 21 102.4
r28 16 20 2.72321
r29 16 17 102.4
r30 14 21 0.540769
r31 13 17 0.540769
.ends

.subckt PM_RCA16BIT_XI13.SUM_INV 11 13 15 16 17 23 28
c52 30 0 0.0118555f
c53 28 0 0.00825184f
c54 23 0 0.0378958f
c55 16 0 0.0352792f
c56 13 0 0.0675865f
c57 11 0 0.0496922f
r58 27 30 6.5
r59 27 28 89.3538
r60 24 28 0.789231
r61 23 24 102.4
r62 19 23 5.23214
r63 19 20 102.4
r64 17 20 1.16923
r65 16 20 2.99615
r66 13 30 1.98872
r67 13 15 53.43
r68 9 30 1.98872
r69 9 11 53.04
.ends

.subckt PM_RCA16BIT_XI13.NET32 17 18 24
c17 24 0 0.0134095f
c18 18 0 0.0133314f
c19 17 0 0.0133289f
r20 24 25 102.4
r21 20 24 1.36607
r22 20 21 102.4
r23 18 25 0.789231
r24 17 21 0.789231
.ends

.subckt PM_RCA16BIT_XI13.NET31 1 2 5 8 9
c27 9 0 0.00900872f
c28 8 0 0.0103622f
c29 5 0 0.00872297f
r30 8 9 102.4
r31 4 8 1.36607
r32 4 5 102.4
r33 2 9 0.789231
r34 1 5 0.789231
.ends

.subckt PM_RCA16BIT_XI11.NET16 1 2 8
c27 8 0 0.0173101f
c28 2 0 0.0066459f
c29 1 0 0.00847162f
r30 4 8 2.72321
r31 2 8 102.4
r32 1 4 102.4
.ends

.subckt PM_RCA16BIT_XI11.COUT_INV 5 7 10 12 14 15 17 18 19 30 34 39 41 42 44 45
+ 49
c102 56 0 0.0118872f
c103 49 0 0.00561758f
c104 45 0 0.00329388f
c105 44 0 0.00495814f
c106 42 0 0.00883431f
c107 41 0 0.0192919f
c108 39 0 0.00325159f
c109 34 0 0.0123044f
c110 30 0 8.40775e-19
c111 19 0 0.0226771f
c112 18 0 0.00788138f
c113 15 0 0.0732133f
c114 12 0 0.0448072f
c115 10 0 0.0385059f
c116 5 0 0.0169342f
r117 53 56 6.5
r118 53 54 89.3538
r119 46 49 5.72
r120 44 45 0.184211
r121 42 54 0.657692
r122 41 42 102.4
r123 39 49 89.3538
r124 38 41 3.16071
r125 38 45 1.09821
r126 38 39 102.4
r127 33 44 0.553571
r128 33 34 102.4
r129 29 34 3.15692
r130 29 30 0.0418175
r131 24 30 0.160909
r132 20 30 0.160909
r133 19 24 2.95231
r134 18 20 0.833077
r135 15 56 1.98872
r136 15 17 63.57
r137 12 56 1.98872
r138 12 14 42.9
r139 8 46 1.98872
r140 8 10 95.16
r141 5 46 1.98872
r142 5 7 32.37
.ends

.subckt PM_RCA16BIT_XI11.NET17 13 14 20
c30 20 0 0.0268042f
c31 14 0 0.0119816f
c32 13 0 0.0161845f
r33 20 21 102.4
r34 16 20 2.72321
r35 16 17 102.4
r36 14 21 0.540769
r37 13 17 0.540769
.ends

.subckt PM_RCA16BIT_XI11.SUM_INV 11 13 15 16 17 23 28
c53 30 0 0.0117892f
c54 28 0 0.0084319f
c55 23 0 0.0408467f
c56 16 0 0.0351536f
c57 13 0 0.0675865f
c58 11 0 0.0499253f
r59 27 30 6.5
r60 27 28 89.3538
r61 24 28 0.789231
r62 23 24 102.4
r63 19 23 5.23214
r64 19 20 102.4
r65 17 20 1.16923
r66 16 20 2.99615
r67 13 30 1.98872
r68 13 15 53.43
r69 9 30 1.98872
r70 9 11 53.04
.ends

.subckt PM_RCA16BIT_XI11.NET32 17 18 24
c24 24 0 0.0134095f
c25 18 0 0.0120731f
c26 17 0 0.0133289f
r27 24 25 102.4
r28 20 24 1.36607
r29 20 21 102.4
r30 18 25 0.789231
r31 17 21 0.789231
.ends

.subckt PM_RCA16BIT_XI11.NET31 1 2 5 8 9
c21 9 0 0.00891868f
c22 8 0 0.0103622f
c23 5 0 0.00859946f
r24 8 9 102.4
r25 4 8 1.36607