* File: RCA16bit.pex.netlist
* Created: Sun Apr 12 02:40:41 2020
* Program "Calibre xRC"
* Version "v2017.3_29.23"
* 
.include "RCA16bit.pex.netlist.pex"
.subckt RCA16bit  GND SUM<15> SUM<7> A<8> VDD A<0> B<0> B<8> COUT CIN B<7> B<15>
+ A<7> A<15> SUM<0> SUM<8> SUM<6> SUM<14> A<9> A<1> B<1> B<9> B<6> B<14> A<6>
+ A<14> SUM<1> SUM<9> SUM<5> SUM<13> A<10> A<2> B<10> B<2> B<13> B<5> A<5> A<13>
+ SUM<2> SUM<10> SUM<4> SUM<12> A<11> A<3> B<3> B<11> B<12> B<4> A<4> A<12>
+ SUM<3> SUM<11>
* 
* SUM<11>	SUM<11>
* SUM<3>	SUM<3>
* A<12>	A<12>
* A<4>	A<4>
* B<4>	B<4>
* B<12>	B<12>
* B<11>	B<11>
* B<3>	B<3>
* A<3>	A<3>
* A<11>	A<11>
* SUM<12>	SUM<12>
* SUM<4>	SUM<4>
* SUM<10>	SUM<10>
* SUM<2>	SUM<2>
* A<13>	A<13>
* A<5>	A<5>
* B<5>	B<5>
* B<13>	B<13>
* B<2>	B<2>
* B<10>	B<10>
* A<2>	A<2>
* A<10>	A<10>
* SUM<13>	SUM<13>
* SUM<5>	SUM<5>
* SUM<9>	SUM<9>
* SUM<1>	SUM<1>
* A<14>	A<14>
* A<6>	A<6>
* B<14>	B<14>
* B<6>	B<6>
* B<9>	B<9>
* B<1>	B<1>
* A<1>	A<1>
* A<9>	A<9>
* SUM<14>	SUM<14>
* SUM<6>	SUM<6>
* SUM<8>	SUM<8>
* SUM<0>	SUM<0>
* A<15>	A<15>
* A<7>	A<7>
* B<15>	B<15>
* B<7>	B<7>
* CIN	CIN
* COUT	COUT
* B<8>	B<8>
* B<0>	B<0>
* A<0>	A<0>
* VDD	VDD
* A<8>	A<8>
* SUM<7>	SUM<7>
* SUM<15>	SUM<15>
* GND	GND
mXI0.MM4 N_XI0.NET16_XI0.MM4_d N_A<0>_XI0.MM4_g N_GND_XI0.MM4_s N_GND_XI0.MM4_b
+ NMOS_VTL L=5e-08 W=1.8e-07 AD=2.07e-14 AS=2.52e-14 PD=5.9e-07 PS=6.4e-07
mXI0.MM0 XI0.NET55 N_A<0>_XI0.MM0_g N_GND_XI0.MM4_s N_GND_XI0.MM4_b NMOS_VTL
+ L=5e-08 W=1.8e-07 AD=2.565e-14 AS=2.52e-14 PD=6.45e-07 PS=6.4e-07
mXI0.MM1 N_XI0.COUT_INV_XI0.MM1_d N_B<0>_XI0.MM1_g XI0.NET55 N_GND_XI0.MM4_b
+ NMOS_VTL L=5e-08 W=1.8e-07 AD=2.52e-14 AS=2.565e-14 PD=6.4e-07 PS=6.45e-07
mXI0.MM2 N_XI0.NET16_XI0.MM2_d N_CIN_XI0.MM2_g N_XI0.COUT_INV_XI0.MM1_d
+ N_GND_XI0.MM4_b NMOS_VTL L=5e-08 W=1.8e-07 AD=2.565e-14 AS=2.52e-14
+ PD=6.45e-07 PS=6.4e-07
mXI0.MM3 N_GND_XI0.MM3_d N_B<0>_XI0.MM3_g N_XI0.NET16_XI0.MM2_d N_GND_XI0.MM4_b
+ NMOS_VTL L=5e-08 W=1.8e-07 AD=3.15e-14 AS=2.565e-14 PD=8.2e-07 PS=6.45e-07
mXI0.MM31 XI0.NET50 N_B<0>_XI0.MM31_g N_GND_XI0.MM3_d N_GND_XI0.MM4_b NMOS_VTL
+ L=5e-08 W=2.7e-07 AD=3.78e-14 AS=3.15e-14 PD=8.2e-07 PS=8.2e-07
mXI0.MM30 XI0.NET51 N_A<0>_XI0.MM30_g XI0.NET50 N_GND_XI0.MM4_b NMOS_VTL L=5e-08
+ W=2.7e-07 AD=3.8475e-14 AS=3.78e-14 PD=8.25e-07 PS=8.2e-07
mXI0.MM29 N_XI0.SUM_INV_XI0.MM29_d N_CIN_XI0.MM29_g XI0.NET51 N_GND_XI0.MM4_b
+ NMOS_VTL L=5e-08 W=2.7e-07 AD=3.15e-14 AS=3.8475e-14 PD=8.2e-07 PS=8.25e-07
mXI0.MM33 N_XI0.NET31_XI0.MM33_d N_XI0.COUT_INV_XI0.MM33_g
+ N_XI0.SUM_INV_XI0.MM29_d N_GND_XI0.MM4_b NMOS_VTL L=5e-08 W=1.8e-07
+ AD=2.565e-14 AS=3.15e-14 PD=6.45e-07 PS=8.2e-07
mXI0.MM35 N_GND_XI0.MM35_d N_CIN_XI0.MM35_g N_XI0.NET31_XI0.MM33_d
+ N_GND_XI0.MM4_b NMOS_VTL L=5e-08 W=1.8e-07 AD=2.52e-14 AS=2.565e-14 PD=6.4e-07
+ PS=6.45e-07
mXI0.MM34 N_GND_XI0.MM35_d N_A<0>_XI0.MM34_g N_XI0.NET31_XI0.MM34_s
+ N_GND_XI0.MM4_b NMOS_VTL L=5e-08 W=1.8e-07 AD=2.52e-14 AS=2.52e-14 PD=6.4e-07
+ PS=6.4e-07
mXI0.MM32 N_XI0.NET31_XI0.MM34_s N_B<0>_XI0.MM32_g N_GND_XI0.MM32_s
+ N_GND_XI0.MM4_b NMOS_VTL L=5e-08 W=1.8e-07 AD=2.52e-14 AS=2.07e-14 PD=6.4e-07
+ PS=5.9e-07
mXI0.MM25 N_NET15_XI0.MM25_d N_XI0.COUT_INV_XI0.MM25_g N_GND_XI0.MM25_s
+ N_GND_XI0.MM4_b NMOS_VTL L=5e-08 W=9e-08 AD=1.035e-14 AS=1.035e-14 PD=4.1e-07
+ PS=4.1e-07
mXI0.MM28 N_SUM<0>_XI0.MM28_d N_XI0.SUM_INV_XI0.MM28_g N_GND_XI0.MM28_s
+ N_GND_XI0.MM4_b NMOS_VTL L=5e-08 W=9e-08 AD=1.035e-14 AS=1.035e-14 PD=4.1e-07
+ PS=4.1e-07
mXI0.MM9 N_XI0.NET17_XI0.MM9_d N_A<0>_XI0.MM9_g N_VDD_XI0.MM9_s N_VDD_XI0.MM9_b
+ PMOS_VTL L=5e-08 W=3.6e-07 AD=4.14e-14 AS=5.04e-14 PD=9.5e-07 PS=1e-06
mXI0.MM6 XI0.NET54 N_A<0>_XI0.MM6_g N_VDD_XI0.MM9_s N_VDD_XI0.MM9_b PMOS_VTL
+ L=5e-08 W=3.6e-07 AD=5.13e-14 AS=5.04e-14 PD=1.005e-06 PS=1e-06
mXI0.MM5 N_XI0.COUT_INV_XI0.MM5_d N_B<0>_XI0.MM5_g XI0.NET54 N_VDD_XI0.MM9_b
+ PMOS_VTL L=5e-08 W=3.6e-07 AD=5.04e-14 AS=5.13e-14 PD=1e-06 PS=1.005e-06
mXI0.MM7 N_XI0.NET17_XI0.MM7_d N_CIN_XI0.MM7_g N_XI0.COUT_INV_XI0.MM5_d
+ N_VDD_XI0.MM9_b PMOS_VTL L=5e-08 W=3.6e-07 AD=5.13e-14 AS=5.04e-14
+ PD=1.005e-06 PS=1e-06
mXI0.MM8 N_VDD_XI0.MM8_d N_B<0>_XI0.MM8_g N_XI0.NET17_XI0.MM7_d N_VDD_XI0.MM9_b
+ PMOS_VTL L=5e-08 W=3.6e-07 AD=6.3e-14 AS=5.13e-14 PD=1.36e-06 PS=1.005e-06
mXI0.MM10 XI0.NET52 N_B<0>_XI0.MM10_g N_VDD_XI0.MM8_d N_VDD_XI0.MM9_b PMOS_VTL
+ L=5e-08 W=5.4e-07 AD=7.56e-14 AS=6.3e-14 PD=1.36e-06 PS=1.36e-06
mXI0.MM11 XI0.NET53 N_A<0>_XI0.MM11_g XI0.NET52 N_VDD_XI0.MM9_b PMOS_VTL L=5e-08
+ W=5.4e-07 AD=7.695e-14 AS=7.56e-14 PD=1.365e-06 PS=1.36e-06
mXI0.MM12 N_XI0.SUM_INV_XI0.MM12_d N_CIN_XI0.MM12_g XI0.NET53 N_VDD_XI0.MM9_b
+ PMOS_VTL L=5e-08 W=5.4e-07 AD=6.3e-14 AS=7.695e-14 PD=1.36e-06 PS=1.365e-06
mXI0.MM16 N_XI0.NET32_XI0.MM16_d N_XI0.COUT_INV_XI0.MM16_g
+ N_XI0.SUM_INV_XI0.MM12_d N_VDD_XI0.MM9_b PMOS_VTL L=5e-08 W=3.6e-07
+ AD=5.13e-14 AS=6.3e-14 PD=1.005e-06 PS=1.36e-06
mXI0.MM15 N_VDD_XI0.MM15_d N_CIN_XI0.MM15_g N_XI0.NET32_XI0.MM16_d
+ N_VDD_XI0.MM9_b PMOS_VTL L=5e-08 W=3.6e-07 AD=5.04e-14 AS=5.13e-14 PD=1e-06
+ PS=1.005e-06
mXI0.MM14 N_VDD_XI0.MM15_d N_A<0>_XI0.MM14_g N_XI0.NET32_XI0.MM14_s
+ N_VDD_XI0.MM9_b PMOS_VTL L=5e-08 W=3.6e-07 AD=5.04e-14 AS=5.04e-14 PD=1e-06
+ PS=1e-06
mXI0.MM13 N_XI0.NET32_XI0.MM14_s N_B<0>_XI0.MM13_g N_VDD_XI0.MM13_s
+ N_VDD_XI0.MM9_b PMOS_VTL L=5e-08 W=3.6e-07 AD=5.04e-14 AS=4.14e-14 PD=1e-06
+ PS=9.5e-07
mXI0.MM26 N_NET15_XI0.MM26_d N_XI0.COUT_INV_XI0.MM26_g N_VDD_XI0.MM26_s
+ N_VDD_XI0.MM9_b PMOS_VTL L=5e-08 W=1.8e-07 AD=2.07e-14 AS=2.07e-14 PD=5.9e-07
+ PS=5.9e-07
mXI0.MM27 N_SUM<0>_XI0.MM27_d N_XI0.SUM_INV_XI0.MM27_g N_VDD_XI0.MM27_s
+ N_VDD_XI0.MM9_b PMOS_VTL L=5e-08 W=1.8e-07 AD=2.07e-14 AS=2.07e-14 PD=5.9e-07
+ PS=5.9e-07
mXI7.MM4 N_XI7.NET16_XI7.MM4_d N_A<7>_XI7.MM4_g N_GND_XI7.MM4_s N_GND_XI7.MM4_b
+ NMOS_VTL L=5e-08 W=1.8e-07 AD=2.07e-14 AS=2.52e-14 PD=5.9e-07 PS=6.4e-07
mXI7.MM0 XI7.NET55 N_A<7>_XI7.MM0_g N_GND_XI7.MM4_s N_GND_XI7.MM4_b NMOS_VTL
+ L=5e-08 W=1.8e-07 AD=2.565e-14 AS=2.52e-14 PD=6.45e-07 PS=6.4e-07
mXI7.MM1 N_XI7.COUT_INV_XI7.MM1_d N_B<7>_XI7.MM1_g XI7.NET55 N_GND_XI7.MM4_b
+ NMOS_VTL L=5e-08 W=1.8e-07 AD=2.52e-14 AS=2.565e-14 PD=6.4e-07 PS=6.45e-07
mXI7.MM2 N_XI7.NET16_XI7.MM2_d N_NET10_XI7.MM2_g N_XI7.COUT_INV_XI7.MM1_d
+ N_GND_XI7.MM4_b NMOS_VTL L=5e-08 W=1.8e-07 AD=2.565e-14 AS=2.52e-14
+ PD=6.45e-07 PS=6.4e-07
mXI7.MM3 N_GND_XI7.MM3_d N_B<7>_XI7.MM3_g N_XI7.NET16_XI7.MM2_d N_GND_XI7.MM4_b
+ NMOS_VTL L=5e-08 W=1.8e-07 AD=3.15e-14 AS=2.565e-14 PD=8.2e-07 PS=6.45e-07
mXI7.MM31 XI7.NET50 N_B<7>_XI7.MM31_g N_GND_XI7.MM3_d N_GND_XI7.MM4_b NMOS_VTL
+ L=5e-08 W=2.7e-07 AD=3.78e-14 AS=3.15e-14 PD=8.2e-07 PS=8.2e-07
mXI7.MM30 XI7.NET51 N_A<7>_XI7.MM30_g XI7.NET50 N_GND_XI7.MM4_b NMOS_VTL L=5e-08
+ W=2.7e-07 AD=3.8475e-14 AS=3.78e-14 PD=8.25e-07 PS=8.2e-07
mXI7.MM29 N_XI7.SUM_INV_XI7.MM29_d N_NET10_XI7.MM29_g XI7.NET51 N_GND_XI7.MM4_b
+ NMOS_VTL L=5e-08 W=2.7e-07 AD=3.15e-14 AS=3.8475e-14 PD=8.2e-07 PS=8.25e-07
mXI7.MM33 N_XI7.NET31_XI7.MM33_d N_XI7.COUT_INV_XI7.MM33_g
+ N_XI7.SUM_INV_XI7.MM29_d N_GND_XI7.MM4_b NMOS_VTL L=5e-08 W=1.8e-07
+ AD=2.565e-14 AS=3.15e-14 PD=6.45e-07 PS=8.2e-07
mXI7.MM35 N_GND_XI7.MM35_d N_NET10_XI7.MM35_g N_XI7.NET31_XI7.MM33_d
+ N_GND_XI7.MM4_b NMOS_VTL L=5e-08 W=1.8e-07 AD=2.52e-14 AS=2.565e-14 PD=6.4e-07
+ PS=6.45e-07
mXI7.MM34 N_GND_XI7.MM35_d N_A<7>_XI7.MM34_g N_XI7.NET31_XI7.MM34_s
+ N_GND_XI7.MM4_b NMOS_VTL L=5e-08 W=1.8e-07 AD=2.52e-14 AS=2.52e-14 PD=6.4e-07
+ PS=6.4e-07
mXI7.MM32 N_XI7.NET31_XI7.MM34_s N_B<7>_XI7.MM32_g N_GND_XI7.MM32_s
+ N_GND_XI7.MM4_b NMOS_VTL L=5e-08 W=1.8e-07 AD=2.52e-14 AS=2.07e-14 PD=6.4e-07
+ PS=5.9e-07
mXI7.MM25 N_NET9_XI7.MM25_d N_XI7.COUT_INV_XI7.MM25_g N_GND_XI7.MM25_s
+ N_GND_XI7.MM4_b NMOS_VTL L=5e-08 W=9e-08 AD=1.035e-14 AS=1.035e-14 PD=4.1e-07
+ PS=4.1e-07
mXI7.MM28 N_SUM<7>_XI7.MM28_d N_XI7.SUM_INV_XI7.MM28_g N_GND_XI7.MM28_s
+ N_GND_XI7.MM4_b NMOS_VTL L=5e-08 W=9e-08 AD=1.035e-14 AS=1.035e-14 PD=4.1e-07
+ PS=4.1e-07
mXI7.MM9 N_XI7.NET17_XI7.MM9_d N_A<7>_XI7.MM9_g N_VDD_XI7.MM9_s N_VDD_XI7.MM9_b
+ PMOS_VTL L=5e-08 W=3.6e-07 AD=4.14e-14 AS=5.04e-14 PD=9.5e-07 PS=1e-06
mXI7.MM6 XI7.NET54 N_A<7>_XI7.MM6_g N_VDD_XI7.MM9_s N_VDD_XI7.MM9_b PMOS_VTL
+ L=5e-08 W=3.6e-07 AD=5.13e-14 AS=5.04e-14 PD=1.005e-06 PS=1e-06
mXI7.MM5 N_XI7.COUT_INV_XI7.MM5_d N_B<7>_XI7.MM5_g XI7.NET54 N_VDD_XI7.MM9_b
+ PMOS_VTL L=5e-08 W=3.6e-07 AD=5.04e-14 AS=5.13e-14 PD=1e-06 PS=1.005e-06
mXI7.MM7 N_XI7.NET17_XI7.MM7_d N_NET10_XI7.MM7_g N_XI7.COUT_INV_XI7.MM5_d
+ N_VDD_XI7.MM9_b PMOS_VTL L=5e-08 W=3.6e-07 AD=5.13e-14 AS=5.04e-14
+ PD=1.005e-06 PS=1e-06
mXI7.MM8 N_VDD_XI7.MM8_d N_B<7>_XI7.MM8_g N_XI7.NET17_XI7.MM7_d N_VDD_XI7.MM9_b
+ PMOS_VTL L=5e-08 W=3.6e-07 AD=6.3e-14 AS=5.13e-14 PD=1.36e-06 PS=1.005e-06
mXI7.MM10 XI7.NET52 N_B<7>_XI7.MM10_g N_VDD_XI7.MM8_d N_VDD_XI7.MM9_b PMOS_VTL
+ L=5e-08 W=5.4e-07 AD=7.56e-14 AS=6.3e-14 PD=1.36e-06 PS=1.36e-06
mXI7.MM11 XI7.NET53 N_A<7>_XI7.MM11_g XI7.NET52 N_VDD_XI7.MM9_b PMOS_VTL L=5e-08
+ W=5.4e-07 AD=7.695e-14 AS=7.56e-14 PD=1.365e-06 PS=1.36e-06
mXI7.MM12 N_XI7.SUM_INV_XI7.MM12_d N_NET10_XI7.MM12_g XI7.NET53 N_VDD_XI7.MM9_b
+ PMOS_VTL L=5e-08 W=5.4e-07 AD=6.3e-14 AS=7.695e-14 PD=1.36e-06 PS=1.365e-06
mXI7.MM16 N_XI7.NET32_XI7.MM16_d N_XI7.COUT_INV_XI7.MM16_g
+ N_XI7.SUM_INV_XI7.MM12_d N_VDD_XI7.MM9_b PMOS_VTL L=5e-08 W=3.6e-07
+ AD=5.13e-14 AS=6.3e-14 PD=1.005e-06 PS=1.36e-06
mXI7.MM15 N_VDD_XI7.MM15_d N_NET10_XI7.MM15_g N_XI7.NET32_XI7.MM16_d
+ N_VDD_XI7.MM9_b PMOS_VTL L=5e-08 W=3.6e-07 AD=5.04e-14 AS=5.13e-14 PD=1e-06
+ PS=1.005e-06
mXI7.MM14 N_VDD_XI7.MM15_d N_A<7>_XI7.MM14_g N_XI7.NET32_XI7.MM14_s
+ N_VDD_XI7.MM9_b PMOS_VTL L=5e-08 W=3.6e-07 AD=5.04e-14 AS=5.04e-14 PD=1e-06
+ PS=1e-06
mXI7.MM13 N_XI7.NET32_XI7.MM14_s N_B<7>_XI7.MM13_g N_VDD_XI7.MM13_s
+ N_VDD_XI7.MM9_b PMOS_VTL L=5e-08 W=3.6e-07 AD=5.04e-14 AS=4.14e-14 PD=1e-06
+ PS=9.5e-07
mXI7.MM26 N_NET9_XI7.MM26_d N_XI7.COUT_INV_XI7.MM26_g N_VDD_XI7.MM26_s
+ N_VDD_XI7.MM9_b PMOS_VTL L=5e-08 W=1.8e-07 AD=2.07e-14 AS=2.07e-14 PD=5.9e-07
+ PS=5.9e-07
mXI7.MM27 N_SUM<7>_XI7.MM27_d N_XI7.SUM_INV_XI7.MM27_g N_VDD_XI7.MM27_s
+ N_VDD_XI7.MM9_b PMOS_VTL L=5e-08 W=1.8e-07 AD=2.07e-14 AS=2.07e-14 PD=5.9e-07
+ PS=5.9e-07
mXI1.MM4 N_XI1.NET16_XI1.MM4_d N_A<1>_XI1.MM4_g N_GND_XI1.MM4_s N_GND_XI0.MM4_b
+ NMOS_VTL L=5e-08 W=1.8e-07 AD=2.07e-14 AS=2.52e-14 PD=5.9e-07 PS=6.4e-07
mXI1.MM0 XI1.NET55 N_A<1>_XI1.MM0_g N_GND_XI1.MM4_s N_GND_XI0.MM4_b NMOS_VTL
+ L=5e-08 W=1.8e-07 AD=2.565e-14 AS=2.52e-14 PD=6.45e-07 PS=6.4e-07
mXI1.MM1 N_XI1.COUT_INV_XI1.MM1_d N_B<1>_XI1.MM1_g XI1.NET55 N_GND_XI0.MM4_b
+ NMOS_VTL L=5e-08 W=1.8e-07 AD=2.52e-14 AS=2.565e-14 PD=6.4e-07 PS=6.45e-07
mXI1.MM2 N_XI1.NET16_XI1.MM2_d N_NET15_XI1.MM2_g N_XI1.COUT_INV_XI1.MM1_d
+ N_GND_XI0.MM4_b NMOS_VTL L=5e-08 W=1.8e-07 AD=2.565e-14 AS=2.52e-14
+ PD=6.45e-07 PS=6.4e-07
mXI1.MM3 N_GND_XI1.MM3_d N_B<1>_XI1.MM3_g N_XI1.NET16_XI1.MM2_d N_GND_XI0.MM4_b
+ NMOS_VTL L=5e-08 W=1.8e-07 AD=3.15e-14 AS=2.565e-14 PD=8.2e-07 PS=6.45e-07
mXI1.MM31 XI1.NET50 N_B<1>_XI1.MM31_g N_GND_XI1.MM3_d N_GND_XI0.MM4_b NMOS_VTL
+ L=5e-08 W=2.7e-07 AD=3.78e-14 AS=3.15e-14 PD=8.2e-07 PS=8.2e-07
mXI1.MM30 XI1.NET51 N_A<1>_XI1.MM30_g XI1.NET50 N_GND_XI0.MM4_b NMOS_VTL L=5e-08
+ W=2.7e-07 AD=3.8475e-14 AS=3.78e-14 PD=8.25e-07 PS=8.2e-07
mXI1.MM29 N_XI1.SUM_INV_XI1.MM29_d N_NET15_XI1.MM29_g XI1.NET51 N_GND_XI0.MM4_b
+ NMOS_VTL L=5e-08 W=2.7e-07 AD=3.15e-14 AS=3.8475e-14 PD=8.2e-07 PS=8.25e-07
mXI1.MM33 N_XI1.NET31_XI1.MM33_d N_XI1.COUT_INV_XI1.MM33_g
+ N_XI1.SUM_INV_XI1.MM29_d N_GND_XI0.MM4_b NMOS_VTL L=5e-08 W=1.8e-07
+ AD=2.565e-14 AS=3.15e-14 PD=6.45e-07 PS=8.2e-07
mXI1.MM35 N_GND_XI1.MM35_d N_NET15_XI1.MM35_g N_XI1.NET31_XI1.MM33_d
+ N_GND_XI0.MM4_b NMOS_VTL L=5e-08 W=1.8e-07 AD=2.52e-14 AS=2.565e-14 PD=6.4e-07
+ PS=6.45e-07
mXI1.MM34 N_GND_XI1.MM35_d N_A<1>_XI1.MM34_g N_XI1.NET31_XI1.MM34_s
+ N_GND_XI0.MM4_b NMOS_VTL L=5e-08 W=1.8e-07 AD=2.52e-14 AS=2.52e-14 PD=6.4e-07
+ PS=6.4e-07
mXI1.MM32 N_XI1.NET31_XI1.MM34_s N_B<1>_XI1.MM32_g N_GND_XI1.MM32_s
+ N_GND_XI0.MM4_b NMOS_VTL L=5e-08 W=1.8e-07 AD=2.52e-14 AS=2.07e-14 PD=6.4e-07
+ PS=5.9e-07
mXI1.MM25 N_NET14_XI1.MM25_d N_XI1.COUT_INV_XI1.MM25_g N_GND_XI1.MM25_s
+ N_GND_XI0.MM4_b NMOS_VTL L=5e-08 W=9e-08 AD=1.035e-14 AS=1.035e-14 PD=4.1e-07
+ PS=4.1e-07
mXI1.MM28 N_SUM<1>_XI1.MM28_d N_XI1.SUM_INV_XI1.MM28_g N_GND_XI1.MM28_s
+ N_GND_XI0.MM4_b NMOS_VTL L=5e-08 W=9e-08 AD=1.035e-14 AS=1.035e-14 PD=4.1e-07
+ PS=4.1e-07
mXI1.MM9 N_XI1.NET17_XI1.MM9_d N_A<1>_XI1.MM9_g N_VDD_XI1.MM9_s N_VDD_XI0.MM9_b
+ PMOS_VTL L=5e-08 W=3.6e-07 AD=4.14e-14 AS=5.04e-14 PD=9.5e-07 PS=1e-06
mXI1.MM6 XI1.NET54 N_A<1>_XI1.MM6_g N_VDD_XI1.MM9_s N_VDD_XI0.MM9_b PMOS_VTL
+ L=5e-08 W=3.6e-07 AD=5.13e-14 AS=5.04e-14 PD=1.005e-06 PS=1e-06
mXI1.MM5 N_XI1.COUT_INV_XI1.MM5_d N_B<1>_XI1.MM5_g XI1.NET54 N_VDD_XI0.MM9_b
+ PMOS_VTL L=5e-08 W=3.6e-07 AD=5.04e-14 AS=5.13e-14 PD=1e-06 PS=1.005e-06
mXI1.MM7 N_XI1.NET17_XI1.MM7_d N_NET15_XI1.MM7_g N_XI1.COUT_INV_XI1.MM5_d
+ N_VDD_XI0.MM9_b PMOS_VTL L=5e-08 W=3.6e-07 AD=5.13e-14 AS=5.04e-14
+ PD=1.005e-06 PS=1e-06
mXI1.MM8 N_VDD_XI1.MM8_d N_B<1>_XI1.MM8_g N_XI1.NET17_XI1.MM7_d N_VDD_XI0.MM9_b
+ PMOS_VTL L=5e-08 W=3.6e-07 AD=6.3e-14 AS=5.13e-14 PD=1.36e-06 PS=1.005e-06
mXI1.MM10 XI1.NET52 N_B<1>_XI1.MM10_g N_VDD_XI1.MM8_d N_VDD_XI0.MM9_b PMOS_VTL
+ L=5e-08 W=5.4e-07 AD=7.56e-14 AS=6.3e-14 PD=1.36e-06 PS=1.36e-06
mXI1.MM11 XI1.NET53 N_A<1>_XI1.MM11_g XI1.NET52 N_VDD_XI0.MM9_b PMOS_VTL L=5e-08
+ W=5.4e-07 AD=7.695e-14 AS=7.56e-14 PD=1.365e-06 PS=1.36e-06
mXI1.MM12 N_XI1.SUM_INV_XI1.MM12_d N_NET15_XI1.MM12_g XI1.NET53 N_VDD_XI0.MM9_b
+ PMOS_VTL L=5e-08 W=5.4e-07 AD=6.3e-14 AS=7.695e-14 PD=1.36e-06 PS=1.365e-06
mXI1.MM16 N_XI1.NET32_XI1.MM16_d N_XI1.COUT_INV_XI1.MM16_g
+ N_XI1.SUM_INV_XI1.MM12_d N_VDD_XI0.MM9_b PMOS_VTL L=5e-08 W=3.6e-07
+ AD=5.13e-14 AS=6.3e-14 PD=1.005e-06 PS=1.36e-06
mXI1.MM15 N_VDD_XI1.MM15_d N_NET15_XI1.MM15_g N_XI1.NET32_XI1.MM16_d
+ N_VDD_XI0.MM9_b PMOS_VTL L=5e-08 W=3.6e-07 AD=5.04e-14 AS=5.13e-14 PD=1e-06
+ PS=1.005e-06
mXI1.MM14 N_VDD_XI1.MM15_d N_A<1>_XI1.MM14_g N_XI1.NET32_XI1.MM14_s
+ N_VDD_XI0.MM9_b PMOS_VTL L=5e-08 W=3.6e-07 AD=5.04e-14 AS=5.04e-14 PD=1e-06
+ PS=1e-06
mXI1.MM13 N_XI1.NET32_XI1.MM14_s N_B<1>_XI1.MM13_g N_VDD_XI1.MM13_s
+ N_VDD_XI0.MM9_b PMOS_VTL L=5e-08 W=3.6e-07 AD=5.04e-14 AS=4.14e-14 PD=1e-06
+ PS=9.5e-07
mXI1.MM26 N_NET14_XI1.MM26_d N_XI1.COUT_INV_XI1.MM26_g N_VDD_XI1.MM26_s
+ N_VDD_XI0.MM9_b PMOS_VTL L=5e-08 W=1.8e-07 AD=2.07e-14 AS=2.07e-14 PD=5.9e-07
+ PS=5.9e-07
mXI1.MM27 N_SUM<1>_XI1.MM27_d N_XI1.SUM_INV_XI1.MM27_g N_VDD_XI1.MM27_s
+ N_VDD_XI0.MM9_b PMOS_VTL L=5e-08 W=1.8e-07 AD=2.07e-14 AS=2.07e-14 PD=5.9e-07
+ PS=5.9e-07
mXI6.MM4 N_XI6.NET16_XI6.MM4_d N_A<6>_XI6.MM4_g N_GND_XI6.MM4_s N_GND_XI7.MM4_b
+ NMOS_VTL L=5e-08 W=1.8e-07 AD=2.07e-14 AS=2.52e-14 PD=5.9e-07 PS=6.4e-07
mXI6.MM0 XI6.NET55 N_A<6>_XI6.MM0_g N_GND_XI6.MM4_s N_GND_XI7.MM4_b NMOS_VTL
+ L=5e-08 W=1.8e-07 AD=2.565e-14 AS=2.52e-14 PD=6.45e-07 PS=6.4e-07
mXI6.MM1 N_XI6.COUT_INV_XI6.MM1_d N_B<6>_XI6.MM1_g XI6.NET55 N_GND_XI7.MM4_b
+ NMOS_VTL L=5e-08 W=1.8e-07 AD=2.52e-14 AS=2.565e-14 PD=6.4e-07 PS=6.45e-07
mXI6.MM2 N_XI6.NET16_XI6.MM2_d N_NET11_XI6.MM2_g N_XI6.COUT_INV_XI6.MM1_d
+ N_GND_XI7.MM4_b NMOS_VTL L=5e-08 W=1.8e-07 AD=2.565e-14 AS=2.52e-14
+ PD=6.45e-07 PS=6.4e-07
mXI6.MM3 N_GND_XI6.MM3_d N_B<6>_XI6.MM3_g N_XI6.NET16_XI6.MM2_d N_GND_XI7.MM4_b
+ NMOS_VTL L=5e-08 W=1.8e-07 AD=3.15e-14 AS=2.565e-14 PD=8.2e-07 PS=6.45e-07
mXI6.MM31 XI6.NET50 N_B<6>_XI6.MM31_g N_GND_XI6.MM3_d N_GND_XI7.MM4_b NMOS_VTL
+ L=5e-08 W=2.7e-07 AD=3.78e-14 AS=3.15e-14 PD=8.2e-07 PS=8.2e-07
mXI6.MM30 XI6.NET51 N_A<6>_XI6.MM30_g XI6.NET50 N_GND_XI7.MM4_b NMOS_VTL L=5e-08
+ W=2.7e-07 AD=3.8475e-14 AS=3.78e-14 PD=8.25e-07 PS=8.2e-07
mXI6.MM29 N_XI6.SUM_INV_XI6.MM29_d N_NET11_XI6.MM29_g XI6.NET51 N_GND_XI7.MM4_b
+ NMOS_VTL L=5e-08 W=2.7e-07 AD=3.15e-14 AS=3.8475e-14 PD=8.2e-07 PS=8.25e-07
mXI6.MM33 N_XI6.NET31_XI6.MM33_d N_XI6.COUT_INV_XI6.MM33_g
+ N_XI6.SUM_INV_XI6.MM29_d N_GND_XI7.MM4_b NMOS_VTL L=5e-08 W=1.8e-07
+ AD=2.565e-14 AS=3.15e-14 PD=6.45e-07 PS=8.2e-07
mXI6.MM35 N_GND_XI6.MM35_d N_NET11_XI6.MM35_g N_XI6.NET31_XI6.MM33_d
+ N_GND_XI7.MM4_b NMOS_VTL L=5e-08 W=1.8e-07 AD=2.52e-14 AS=2.565e-14 PD=6.4e-07
+ PS=6.45e-07
mXI6.MM34 N_GND_XI6.MM35_d N_A<6>_XI6.MM34_g N_XI6.NET31_XI6.MM34_s
+ N_GND_XI7.MM4_b NMOS_VTL L=5e-08 W=1.8e-07 AD=2.52e-14 AS=2.52e-14 PD=6.4e-07
+ PS=6.4e-07
mXI6.MM32 N_XI6.NET31_XI6.MM34_s N_B<6>_XI6.MM32_g N_GND_XI6.MM32_s
+ N_GND_XI7.MM4_b NMOS_VTL L=5e-08 W=1.8e-07 AD=2.52e-14 AS=2.07e-14 PD=6.4e-07
+ PS=5.9e-07
mXI6.MM25 N_NET10_XI6.MM25_d N_XI6.COUT_INV_XI6.MM25_g N_GND_XI6.MM25_s
+ N_GND_XI7.MM4_b NMOS_VTL L=5e-08 W=9e-08 AD=1.035e-14 AS=1.035e-14 PD=4.1e-07
+ PS=4.1e-07
mXI6.MM28 N_SUM<6>_XI6.MM28_d N_XI6.SUM_INV_XI6.MM28_g N_GND_XI6.MM28_s
+ N_GND_XI7.MM4_b NMOS_VTL L=5e-08 W=9e-08 AD=1.035e-14 AS=1.035e-14 PD=4.1e-07
+ PS=4.1e-07
mXI6.MM9 N_XI6.NET17_XI6.MM9_d N_A<6>_XI6.MM9_g N_VDD_XI6.MM9_s N_VDD_XI7.MM9_b
+ PMOS_VTL L=5e-08 W=3.6e-07 AD=4.14e-14 AS=5.04e-14 PD=9.5e-07 PS=1e-06
mXI6.MM6 XI6.NET54 N_A<6>_XI6.MM6_g N_VDD_XI6.MM9_s N_VDD_XI7.MM9_b PMOS_VTL
+ L=5e-08 W=3.6e-07 AD=5.13e-14 AS=5.04e-14 PD=1.005e-06 PS=1e-06
mXI6.MM5 N_XI6.COUT_INV_XI6.MM5_d N_B<6>_XI6.MM5_g XI6.NET54 N_VDD_XI7.MM9_b
+ PMOS_VTL L=5e-08 W=3.6e-07 AD=5.04e-14 AS=5.13e-14 PD=1e-06 PS=1.005e-06
mXI6.MM7 N_XI6.NET17_XI6.MM7_d N_NET11_XI6.MM7_g N_XI6.COUT_INV_XI6.MM5_d
+ N_VDD_XI7.MM9_b PMOS_VTL L=5e-08 W=3.6e-07 AD=5.13e-14 AS=5.04e-14
+ PD=1.005e-06 PS=1e-06
mXI6.MM8 N_VDD_XI6.MM8_d N_B<6>_XI6.MM8_g N_XI6.NET17_XI6.MM7_d N_VDD_XI7.MM9_b
+ PMOS_VTL L=5e-08 W=3.6e-07 AD=6.3e-14 AS=5.13e-14 PD=1.36e-06 PS=1.005e-06
mXI6.MM10 XI6.NET52 N_B<6>_XI6.MM10_g N_VDD_XI6.MM8_d N_VDD_XI7.MM9_b PMOS_VTL
+ L=5e-08 W=5.4e-07 AD=7.56e-14 AS=6.3e-14 PD=1.36e-06 PS=1.36e-06
mXI6.MM11 XI6.NET53 N_A<6>_XI6.MM11_g XI6.NET52 N_VDD_XI7.MM9_b PMOS_VTL L=5e-08
+ W=5.4e-07 AD=7.695e-14 AS=7.56e-14 PD=1.365e-06 PS=1.36e-06
mXI6.MM12 N_XI6.SUM_INV_XI6.MM12_d N_NET11_XI6.MM12_g XI6.NET53 N_VDD_XI7.MM9_b
+ PMOS_VTL L=5e-08 W=5.4e-07 AD=6.3e-14 AS=7.695e-14 PD=1.36e-06 PS=1.365e-06
mXI6.MM16 N_XI6.NET32_XI6.MM16_d N_XI6.COUT_INV_XI6.MM16_g
+ N_XI6.SUM_INV_XI6.MM12_d N_VDD_XI7.MM9_b PMOS_VTL L=5e-08 W=3.6e-07
+ AD=5.13e-14 AS=6.3e-14 PD=1.005e-06 PS=1.36e-06
mXI6.MM15 N_VDD_XI6.MM15_d N_NET11_XI6.MM15_g N_XI6.NET32_XI6.MM16_d
+ N_VDD_XI7.MM9_b PMOS_VTL L=5e-08 W=3.6e-07 AD=5.04e-14 AS=5.13e-14 PD=1e-06
+ PS=1.005e-06
mXI6.MM14 N_VDD_XI6.MM15_d N_A<6>_XI6.MM14_g N_XI6.NET32_XI6.MM14_s
+ N_VDD_XI7.MM9_b PMOS_VTL L=5e-08 W=3.6e-07 AD=5.04e-14 AS=5.04e-14 PD=1e-06
+ PS=1e-06
mXI6.MM13 N_XI6.NET32_XI6.MM14_s N_B<6>_XI6.MM13_g N_VDD_XI6.MM13_s
+ N_VDD_XI7.MM9_b PMOS_VTL L=5e-08 W=3.6e-07 AD=5.04e-14 AS=4.14e-14 PD=1e-06
+ PS=9.5e-07
mXI6.MM26 N_NET10_XI6.MM26_d N_XI6.COUT_INV_XI6.MM26_g N_VDD_XI6.MM26_s
+ N_VDD_XI7.MM9_b PMOS_VTL L=5e-08 W=1.8e-07 AD=2.07e-14 AS=2.07e-14 PD=5.9e-07
+ PS=5.9e-07
mXI6.MM27 N_SUM<6>_XI6.MM27_d N_XI6.SUM_INV_XI6.MM27_g N_VDD_XI6.MM27_s
+ N_VDD_XI7.MM9_b PMOS_VTL L=5e-08 W=1.8e-07 AD=2.07e-14 AS=2.07e-14 PD=5.9e-07
+ PS=5.9e-07
mXI8.MM4 N_XI8.NET16_XI8.MM4_d N_A<8>_XI8.MM4_g N_GND_XI8.MM4_s N_GND_XI8.MM4_b
+ NMOS_VTL L=5e-08 W=1.8e-07 AD=2.07e-14 AS=2.52e-14 PD=5.9e-07 PS=6.4e-07
mXI8.MM0 XI8.NET55 N_A<8>_XI8.MM0_g N_GND_XI8.MM4_s N_GND_XI8.MM4_b NMOS_VTL
+ L=5e-08 W=1.8e-07 AD=2.565e-14 AS=2.52e-14 PD=6.45e-07 PS=6.4e-07
mXI8.MM1 N_XI8.COUT_INV_XI8.MM1_d N_B<8>_XI8.MM1_g XI8.NET55 N_GND_XI8.MM4_b
+ NMOS_VTL L=5e-08 W=1.8e-07 AD=2.52e-14 AS=2.565e-14 PD=6.4e-07 PS=6.45e-07
mXI8.MM2 N_XI8.NET16_XI8.MM2_d N_NET9_XI8.MM2_g N_XI8.COUT_INV_XI8.MM1_d
+ N_GND_XI8.MM4_b NMOS_VTL L=5e-08 W=1.8e-07 AD=2.565e-14 AS=2.52e-14
+ PD=6.45e-07 PS=6.4e-07
mXI8.MM3 N_GND_XI8.MM3_d N_B<8>_XI8.MM3_g N_XI8.NET16_XI8.MM2_d N_GND_XI8.MM4_b
+ NMOS_VTL L=5e-08 W=1.8e-07 AD=3.15e-14 AS=2.565e-14 PD=8.2e-07 PS=6.45e-07
mXI8.MM31 XI8.NET50 N_B<8>_XI8.MM31_g N_GND_XI8.MM3_d N_GND_XI8.MM4_b NMOS_VTL
+ L=5e-08 W=2.7e-07 AD=3.78e-14 AS=3.15e-14 PD=8.2e-07 PS=8.2e-07
mXI8.MM30 XI8.NET51 N_A<8>_XI8.MM30_g XI8.NET50 N_GND_XI8.MM4_b NMOS_VTL L=5e-08
+ W=2.7e-07 AD=3.8475e-14 AS=3.78e-14 PD=8.25e-07 PS=8.2e-07
mXI8.MM29 N_XI8.SUM_INV_XI8.MM29_d N_NET9_XI8.MM29_g XI8.NET51 N_GND_XI8.MM4_b
+ NMOS_VTL L=5e-08 W=2.7e-07 AD=3.15e-14 AS=3.8475e-14 PD=8.2e-07 PS=8.25e-07
mXI8.MM33 N_XI8.NET31_XI8.MM33_d N_XI8.COUT_INV_XI8.MM33_g
+ N_XI8.SUM_INV_XI8.MM29_d N_GND_XI8.MM4_b NMOS_VTL L=5e-08 W=1.8e-07
+ AD=2.565e-14 AS=3.15e-14 PD=6.45e-07 PS=8.2e-07
mXI8.MM35 N_GND_XI8.MM35_d N_NET9_XI8.MM35_g N_XI8.NET31_XI8.MM33_d
+ N_GND_XI8.MM4_b NMOS_VTL L=5e-08 W=1.8e-07 AD=2.52e-14 AS=2.565e-14 PD=6.4e-07
+ PS=6.45e-07
mXI8.MM34 N_GND_XI8.MM35_d N_A<8>_XI8.MM34_g N_XI8.NET31_XI8.MM34_s
+ N_GND_XI8.MM4_b NMOS_VTL L=5e-08 W=1.8e-07 AD=2.52e-14 AS=2.52e-14 PD=6.4e-07
+ PS=6.4e-07
mXI8.MM32 N_XI8.NET31_XI8.MM34_s N_B<8>_XI8.MM32_g N_GND_XI8.MM32_s
+ N_GND_XI8.MM4_b NMOS_VTL L=5e-08 W=1.8e-07 AD=2.52e-14 AS=2.07e-14 PD=6.4e-07
+ PS=5.9e-07
mXI8.MM25 N_NET8_XI8.MM25_d N_XI8.COUT_INV_XI8.MM25_g N_GND_XI8.MM25_s
+ N_GND_XI8.MM4_b NMOS_VTL L=5e-08 W=9e-08 AD=1.035e-14 AS=1.035e-14 PD=4.1e-07
+ PS=4.1e-07
mXI8.MM28 N_SUM<8>_XI8.MM28_d N_XI8.SUM_INV_XI8.MM28_g N_GND_XI8.MM28_s
+ N_GND_XI8.MM4_b NMOS_VTL L=5e-08 W=9e-08 AD=1.035e-14 AS=1.035e-14 PD=4.1e-07
+ PS=4.1e-07
mXI8.MM9 N_XI8.NET17_XI8.MM9_d N_A<8>_XI8.MM9_g N_VDD_XI8.MM9_s N_VDD_XI8.MM9_b
+ PMOS_VTL L=5e-08 W=3.6e-07 AD=4.14e-14 AS=5.04e-14 PD=9.5e-07 PS=1e-06
mXI8.MM6 XI8.NET54 N_A<8>_XI8.MM6_g N_VDD_XI8.MM9_s N_VDD_XI8.MM9_b PMOS_VTL
+ L=5e-08 W=3.6e-07 AD=5.13e-14 AS=5.04e-14 PD=1.005e-06 PS=1e-06
mXI8.MM5 N_XI8.COUT_INV_XI8.MM5_d N_B<8>_XI8.MM5_g XI8.NET54 N_VDD_XI8.MM9_b
+ PMOS_VTL L=5e-08 W=3.6e-07 AD=5.04e-14 AS=5.13e-14 PD=1e-06 PS=1.005e-06
mXI8.MM7 N_XI8.NET17_XI8.MM7_d N_NET9_XI8.MM7_g N_XI8.COUT_INV_XI8.MM5_d
+ N_VDD_XI8.MM9_b PMOS_VTL L=5e-08 W=3.6e-07 AD=5.13e-14 AS=5.04e-14
+ PD=1.005e-06 PS=1e-06
mXI8.MM8 N_VDD_XI8.MM8_d N_B<8>_XI8.MM8_g N_XI8.NET17_XI8.MM7_d N_VDD_XI8.MM9_b
+ PMOS_VTL L=5e-08 W=3.6e-07 AD=6.3e-14 AS=5.13e-14 PD=1.36e-06 PS=1.005e-06
mXI8.MM10 XI8.NET52 N_B<8>_XI8.MM10_g N_VDD_XI8.MM8_d N_VDD_XI8.MM9_b PMOS_VTL
+ L=5e-08 W=5.4e-07 AD=7.56e-14 AS=6.3e-14 PD=1.36e-06 PS=1.36e-06
mXI8.MM11 XI8.NET53 N_A<8>_XI8.MM11_g XI8.NET52 N_VDD_XI8.MM9_b PMOS_VTL L=5e-08
+ W=5.4e-07 AD=7.695e-14 AS=7.56e-14 PD=1.365e-06 PS=1.36e-06
mXI8.MM12 N_XI8.SUM_INV_XI8.MM12_d N_NET9_XI8.MM12_g XI8.NET53 N_VDD_XI8.MM9_b
+ PMOS_VTL L=5e-08 W=5.4e-07 AD=6.3e-14 AS=7.695e-14 PD=1.36e-06 PS=1.365e-06
mXI8.MM16 N_XI8.NET32_XI8.MM16_d N_XI8.COUT_INV_XI8.MM16_g
+ N_XI8.SUM_INV_XI8.MM12_d N_VDD_XI8.MM9_b PMOS_VTL L=5e-08 W=3.6e-07
+ AD=5.13e-14 AS=6.3e-14 PD=1.005e-06 PS=1.36e-06
mXI8.MM15 N_VDD_XI8.MM15_d N_NET9_XI8.MM15_g N_XI8.NET32_XI8.MM16_d
+ N_VDD_XI8.MM9_b PMOS_VTL L=5e-08 W=3.6e-07 AD=5.04e-14 AS=5.13e-14 PD=1e-06
+ PS=1.005e-06
mXI8.MM14 N_VDD_XI8.MM15_d N_A<8>_XI8.MM14_g N_XI8.NET32_XI8.MM14_s
+ N_VDD_XI8.MM9_b PMOS_VTL L=5e-08 W=3.6e-07 AD=5.04e-14 AS=5.04e-14 PD=1e-06
+ PS=1e-06
mXI8.MM13 N_XI8.NET32_XI8.MM14_s N_B<8>_XI8.MM13_g N_VDD_XI8.MM13_s
+ N_VDD_XI8.MM9_b PMOS_VTL L=5e-08 W=3.6e-07 AD=5.04e-14 AS=4.14e-14 PD=1e-06
+ PS=9.5e-07
mXI8.MM26 N_NET8_XI8.MM26_d N_XI8.COUT_INV_XI8.MM26_g N_VDD_XI8.MM26_s
+ N_VDD_XI8.MM9_b PMOS_VTL L=5e-08 W=1.8e-07 AD=2.07e-14 AS=2.07e-14 PD=5.9e-07
+ PS=5.9e-07
mXI8.MM27 N_SUM<8>_XI8.MM27_d N_XI8.SUM_INV_XI8.MM27_g N_VDD_XI8.MM27_s
+ N_VDD_XI8.MM9_b PMOS_VTL L=5e-08 W=1.8e-07 AD=2.07e-14 AS=2.07e-14 PD=5.9e-07
+ PS=5.9e-07
mXI15.MM4 N_XI15.NET16_XI15.MM4_d N_A<15>_XI15.MM4_g N_GND_XI15.MM4_s
+ N_GND_XI15.MM4_b NMOS_VTL L=5e-08 W=1.8e-07 AD=2.07e-14 AS=2.52e-14 PD=5.9e-07
+ PS=6.4e-07
mXI15.MM0 XI15.NET55 N_A<15>_XI15.MM0_g N_GND_XI15.MM4_s N_GND_XI15.MM4_b
+ NMOS_VTL L=5e-08 W=1.8e-07 AD=2.565e-14 AS=2.52e-14 PD=6.45e-07 PS=6.4e-07
mXI15.MM1 N_XI15.COUT_INV_XI15.MM1_d N_B<15>_XI15.MM1_g XI15.NET55
+ N_GND_XI15.MM4_b NMOS_VTL L=5e-08 W=1.8e-07 AD=2.52e-14 AS=2.565e-14
+ PD=6.4e-07 PS=6.45e-07
mXI15.MM2 N_XI15.NET16_XI15.MM2_d N_NET4_XI15.MM2_g N_XI15.COUT_INV_XI15.MM1_d
+ N_GND_XI15.MM4_b NMOS_VTL L=5e-08 W=1.8e-07 AD=2.565e-14 AS=2.52e-14
+ PD=6.45e-07 PS=6.4e-07
mXI15.MM3 N_GND_XI15.MM3_d N_B<15>_XI15.MM3_g N_XI15.NET16_XI15.MM2_d
+ N_GND_XI15.MM4_b NMOS_VTL L=5e-08 W=1.8e-07 AD=3.15e-14 AS=2.565e-14
+ PD=8.2e-07 PS=6.45e-07
mXI15.MM31 XI15.NET50 N_B<15>_XI15.MM31_g N_GND_XI15.MM3_d N_GND_XI15.MM4_b
+ NMOS_VTL L=5e-08 W=2.7e-07 AD=3.78e-14 AS=3.15e-14 PD=8.2e-07 PS=8.2e-07
mXI15.MM30 XI15.NET51 N_A<15>_XI15.MM30_g XI15.NET50 N_GND_XI15.MM4_b NMOS_VTL
+ L=5e-08 W=2.7e-07 AD=3.8475e-14 AS=3.78e-14 PD=8.25e-07 PS=8.2e-07
mXI15.MM29 N_XI15.SUM_INV_XI15.MM29_d N_NET4_XI15.MM29_g XI15.NET51
+ N_GND_XI15.MM4_b NMOS_VTL L=5e-08 W=2.7e-07 AD=3.15e-14 AS=3.8475e-14
+ PD=8.2e-07 PS=8.25e-07
mXI15.MM33 N_XI15.NET31_XI15.MM33_d N_XI15.COUT_INV_XI15.MM33_g
+ N_XI15.SUM_INV_XI15.MM29_d N_GND_XI15.MM4_b NMOS_VTL L=5e-08 W=1.8e-07
+ AD=2.565e-14 AS=3.15e-14 PD=6.45e-07 PS=8.2e-07
mXI15.MM35 N_GND_XI15.MM35_d N_NET4_XI15.MM35_g N_XI15.NET31_XI15.MM33_d
+ N_GND_XI15.MM4_b NMOS_VTL L=5e-08 W=1.8e-07 AD=2.52e-14 AS=2.565e-14
+ PD=6.4e-07 PS=6.45e-07
mXI15.MM34 N_GND_XI15.MM35_d N_A<15>_XI15.MM34_g N_XI15.NET31_XI15.MM34_s
+ N_GND_XI15.MM4_b NMOS_VTL L=5e-08 W=1.8e-07 AD=2.52e-14 AS=2.52e-14 PD=6.4e-07
+ PS=6.4e-07
mXI15.MM32 N_XI15.NET31_XI15.MM34_s N_B<15>_XI15.MM32_g N_GND_XI15.MM32_s
+ N_GND_XI15.MM4_b NMOS_VTL L=5e-08 W=1.8e-07 AD=2.52e-14 AS=2.07e-14 PD=6.4e-07
+ PS=5.9e-07
mXI15.MM25 N_COUT_XI15.MM25_d N_XI15.COUT_INV_XI15.MM25_g N_GND_XI15.MM25_s
+ N_GND_XI15.MM4_b NMOS_VTL L=5e-08 W=9e-08 AD=1.035e-14 AS=1.035e-14 PD=4.1e-07
+ PS=4.1e-07
mXI15.MM28 N_SUM<15>_XI15.MM28_d N_XI15.SUM_INV_XI15.MM28_g N_GND_XI15.MM28_s
+ N_GND_XI15.MM4_b NMOS_VTL L=5e-08 W=9e-08 AD=1.035e-14 AS=1.035e-14 PD=4.1e-07
+ PS=4.1e-07
mXI15.MM9 N_XI15.NET17_XI15.MM9_d N_A<15>_XI15.MM9_g N_VDD_XI15.MM9_s
+ N_VDD_XI15.MM9_b PMOS_VTL L=5e-08 W=3.6e-07 AD=4.14e-14 AS=5.04e-14 PD=9.5e-07
+ PS=1e-06
mXI15.MM6 XI15.NET54 N_A<15>_XI15.MM6_g N_VDD_XI15.MM9_s N_VDD_XI15.MM9_b
+ PMOS_VTL L=5e-08 W=3.6e-07 AD=5.13e-14 AS=5.04e-14 PD=1.005e-06 PS=1e-06
mXI15.MM5 N_XI15.COUT_INV_XI15.MM5_d N_B<15>_XI15.MM5_g XI15.NET54
+ N_VDD_XI15.MM9_b PMOS_VTL L=5e-08 W=3.6e-07 AD=5.04e-14 AS=5.13e-14 PD=1e-06
+ PS=1.005e-06
mXI15.MM7 N_XI15.NET17_XI15.MM7_d N_NET4_XI15.MM7_g N_XI15.COUT_INV_XI15.MM5_d
+ N_VDD_XI15.MM9_b PMOS_VTL L=5e-08 W=3.6e-07 AD=5.13e-14 AS=5.04e-14
+ PD=1.005e-06 PS=1e-06
mXI15.MM8 N_VDD_XI15.MM8_d N_B<15>_XI15.MM8_g N_XI15.NET17_XI15.MM7_d
+ N_VDD_XI15.MM9_b PMOS_VTL L=5e-08 W=3.6e-07 AD=6.3e-14 AS=5.13e-14 PD=1.36e-06
+ PS=1.005e-06
mXI15.MM10 XI15.NET52 N_B<15>_XI15.MM10_g N_VDD_XI15.MM8_d N_VDD_XI15.MM9_b
+ PMOS_VTL L=5e-08 W=5.4e-07 AD=7.56e-14 AS=6.3e-14 PD=1.36e-06 PS=1.36e-06
mXI15.MM11 XI15.NET53 N_A<15>_XI15.MM11_g XI15.NET52 N_VDD_XI15.MM9_b PMOS_VTL
+ L=5e-08 W=5.4e-07 AD=7.695e-14 AS=7.56e-14 PD=1.365e-06 PS=1.36e-06
mXI15.MM12 N_XI15.SUM_INV_XI15.MM12_d N_NET4_XI15.MM12_g XI15.NET53
+ N_VDD_XI15.MM9_b PMOS_VTL L=5e-08 W=5.4e-07 AD=6.3e-14 AS=7.695e-14
+ PD=1.36e-06 PS=1.365e-06
mXI15.MM16 N_XI15.NET32_XI15.MM16_d N_XI15.COUT_INV_XI15.MM16_g
+ N_XI15.SUM_INV_XI15.MM12_d N_VDD_XI15.MM9_b PMOS_VTL L=5e-08 W=3.6e-07
+ AD=5.13e-14 AS=6.3e-14 PD=1.005e-06 PS=1.36e-06
mXI15.MM15 N_VDD_XI15.MM15_d N_NET4_XI15.MM15_g N_XI15.NET32_XI15.MM16_d
+ N_VDD_XI15.MM9_b PMOS_VTL L=5e-08 W=3.6e-07 AD=5.04e-14 AS=5.13e-14 PD=1e-06
+ PS=1.005e-06
mXI15.MM14 N_VDD_XI15.MM15_d N_A<15>_XI15.MM14_g N_XI15.NET32_XI15.MM14_s
+ N_VDD_XI15.MM9_b PMOS_VTL L=5e-08 W=3.6e-07 AD=5.04e-14 AS=5.04e-14 PD=1e-06
+ PS=1e-06
mXI15.MM13 N_XI15.NET32_XI15.MM14_s N_B<15>_XI15.MM13_g N_VDD_XI15.MM13_s
+ N_VDD_XI15.MM9_b PMOS_VTL L=5e-08 W=3.6e-07 AD=5.04e-14 AS=4.14e-14 PD=1e-06
+ PS=9.5e-07
mXI15.MM26 N_COUT_XI15.MM26_d N_XI15.COUT_INV_XI15.MM26_g N_VDD_XI15.MM26_s
+ N_VDD_XI15.MM9_b PMOS_VTL L=5e-08 W=1.8e-07 AD=2.07e-14 AS=2.07e-14 PD=5.9e-07
+ PS=5.9e-07
mXI15.MM27 N_SUM<15>_XI15.MM27_d N_XI15.SUM_INV_XI15.MM27_g N_VDD_XI15.MM27_s
+ N_VDD_XI15.MM9_b PMOS_VTL L=5e-08 W=1.8e-07 AD=2.07e-14 AS=2.07e-14 PD=5.9e-07
+ PS=5.9e-07
mXI9.MM4 N_XI9.NET16_XI9.MM4_d N_A<9>_XI9.MM4_g N_GND_XI9.MM4_s N_GND_XI8.MM4_b
+ NMOS_VTL L=5e-08 W=1.8e-07 AD=2.07e-14 AS=2.52e-14 PD=5.9e-07 PS=6.4e-07
mXI9.MM0 XI9.NET55 N_A<9>_XI9.MM0_g N_GND_XI9.MM4_s N_GND_XI8.MM4_b NMOS_VTL
+ L=5e-08 W=1.8e-07 AD=2.565e-14 AS=2.52e-14 PD=6.45e-07 PS=6.4e-07
mXI9.MM1 N_XI9.COUT_INV_XI9.MM1_d N_B<9>_XI9.MM1_g XI9.NET55 N_GND_XI8.MM4_b
+ NMOS_VTL L=5e-08 W=1.8e-07 AD=2.52e-14 AS=2.565e-14 PD=6.4e-07 PS=6.45e-07
mXI9.MM2 N_XI9.NET16_XI9.MM2_d N_NET8_XI9.MM2_g N_XI9.COUT_INV_XI9.MM1_d
+ N_GND_XI8.MM4_b NMOS_VTL L=5e-08 W=1.8e-07 AD=2.565e-14 AS=2.52e-14
+ PD=6.45e-07 PS=6.4e-07
mXI9.MM3 N_GND_XI9.MM3_d N_B<9>_XI9.MM3_g N_XI9.NET16_XI9.MM2_d N_GND_XI8.MM4_b
+ NMOS_VTL L=5e-08 W=1.8e-07 AD=3.15e-14 AS=2.565e-14 PD=8.2e-07 PS=6.45e-07
mXI9.MM31 XI9.NET50 N_B<9>_XI9.MM31_g N_GND_XI9.MM3_d N_GND_XI8.MM4_b NMOS_VTL
+ L=5e-08 W=2.7e-07 AD=3.78e-14 AS=3.15e-14 PD=8.2e-07 PS=8.2e-07
mXI9.MM30 XI9.NET51 N_A<9>_XI9.MM30_g XI9.NET50 N_GND_XI8.MM4_b NMOS_VTL L=5e-08
+ W=2.7e-07 AD=3.8475e-14 AS=3.78e-14 PD=8.25e-07 PS=8.2e-07
mXI9.MM29 N_XI9.SUM_INV_XI9.MM29_d N_NET8_XI9.MM29_g XI9.NET51 N_GND_XI8.MM4_b
+ NMOS_VTL L=5e-08 W=2.7e-07 AD=3.15e-14 AS=3.8475e-14 PD=8.2e-07 PS=8.25e-07
mXI9.MM33 N_XI9.NET31_XI9.MM33_d N_XI9.COUT_INV_XI9.MM33_g
+ N_XI9.SUM_INV_XI9.MM29_d N_GND_XI8.MM4_b NMOS_VTL L=5e-08 W=1.8e-07
+ AD=2.565e-14 AS=3.15e-14 PD=6.45e-07 PS=8.2e-07
mXI9.MM35 N_GND_XI9.MM35_d N_NET8_XI9.MM35_g N_XI9.NET31_XI9.MM33_d
+ N_GND_XI8.MM4_b NMOS_VTL L=5e-08 W=1.8e-07 AD=2.52e-14 AS=2.565e-14 PD=6.4e-07
+ PS=6.45e-07
mXI9.MM34 N_GND_XI9.MM35_d N_A<9>_XI9.MM34_g N_XI9.NET31_XI9.MM34_s
+ N_GND_XI8.MM4_b NMOS_VTL L=5e-08 W=1.8e-07 AD=2.52e-14 AS=2.52e-14 PD=6.4e-07
+ PS=6.4e-07
mXI9.MM32 N_XI9.NET31_XI9.MM34_s N_B<9>_XI9.MM32_g N_GND_XI9.MM32_s
+ N_GND_XI8.MM4_b NMOS_VTL L=5e-08 W=1.8e-07 AD=2.52e-14 AS=2.07e-14 PD=6.4e-07
+ PS=5.9e-07
mXI9.MM25 N_NET6_XI9.MM25_d N_XI9.COUT_INV_XI9.MM25_g N_GND_XI9.MM25_s
+ N_GND_XI8.MM4_b NMOS_VTL L=5e-08 W=9e-08 AD=1.035e-14 AS=1.035e-14 PD=4.1e-07
+ PS=4.1e-07